*SPEF "ieee 1481-1999"
*DESIGN "user_project_wrapper"
*DATE "11:11:11 Fri 11 11, 1111"
*VENDOR "OpenRCX"
*PROGRAM "Parallel Extraction"
*VERSION "1.0"
*DESIGN_FLOW "NAME_SCOPE LOCAL" "PIN_CAP NONE"
*DIVIDER /
*DELIMITER :
*BUS_DELIMITER []
*T_UNIT 1 NS
*C_UNIT 1 PF
*R_UNIT 1 OHM
*L_UNIT 1 HENRY

*NAME_MAP
*1 io_in[0]
*2 io_in[10]
*3 io_in[11]
*4 io_in[12]
*5 io_in[13]
*6 io_in[14]
*7 io_in[15]
*8 io_in[16]
*9 io_in[17]
*10 io_in[18]
*11 io_in[19]
*12 io_in[1]
*13 io_in[20]
*14 io_in[21]
*15 io_in[22]
*16 io_in[23]
*17 io_in[24]
*18 io_in[25]
*19 io_in[26]
*20 io_in[27]
*21 io_in[28]
*22 io_in[29]
*23 io_in[2]
*24 io_in[30]
*25 io_in[31]
*26 io_in[32]
*27 io_in[33]
*28 io_in[34]
*29 io_in[35]
*30 io_in[36]
*31 io_in[37]
*32 io_in[3]
*33 io_in[4]
*34 io_in[5]
*35 io_in[6]
*36 io_in[7]
*37 io_in[8]
*38 io_in[9]
*39 io_oeb[0]
*40 io_oeb[10]
*41 io_oeb[11]
*42 io_oeb[12]
*43 io_oeb[13]
*44 io_oeb[14]
*45 io_oeb[15]
*46 io_oeb[16]
*47 io_oeb[17]
*48 io_oeb[18]
*49 io_oeb[19]
*50 io_oeb[1]
*51 io_oeb[20]
*52 io_oeb[21]
*53 io_oeb[22]
*54 io_oeb[23]
*55 io_oeb[24]
*56 io_oeb[25]
*57 io_oeb[26]
*58 io_oeb[27]
*59 io_oeb[28]
*60 io_oeb[29]
*61 io_oeb[2]
*62 io_oeb[30]
*63 io_oeb[31]
*64 io_oeb[32]
*65 io_oeb[33]
*66 io_oeb[34]
*67 io_oeb[35]
*68 io_oeb[36]
*69 io_oeb[37]
*70 io_oeb[3]
*71 io_oeb[4]
*72 io_oeb[5]
*73 io_oeb[6]
*74 io_oeb[7]
*75 io_oeb[8]
*76 io_oeb[9]
*77 io_out[0]
*78 io_out[10]
*79 io_out[11]
*80 io_out[12]
*81 io_out[13]
*82 io_out[14]
*83 io_out[15]
*84 io_out[16]
*85 io_out[17]
*86 io_out[18]
*87 io_out[19]
*88 io_out[1]
*89 io_out[20]
*90 io_out[21]
*91 io_out[22]
*92 io_out[23]
*93 io_out[24]
*94 io_out[25]
*95 io_out[26]
*96 io_out[27]
*97 io_out[28]
*98 io_out[29]
*99 io_out[2]
*100 io_out[30]
*101 io_out[31]
*102 io_out[32]
*103 io_out[33]
*104 io_out[34]
*105 io_out[35]
*106 io_out[36]
*107 io_out[37]
*108 io_out[3]
*109 io_out[4]
*110 io_out[5]
*111 io_out[6]
*112 io_out[7]
*113 io_out[8]
*114 io_out[9]
*115 la_data_in[0]
*116 la_data_in[10]
*117 la_data_in[11]
*118 la_data_in[12]
*119 la_data_in[13]
*120 la_data_in[14]
*121 la_data_in[15]
*122 la_data_in[16]
*123 la_data_in[17]
*124 la_data_in[18]
*125 la_data_in[19]
*126 la_data_in[1]
*127 la_data_in[20]
*128 la_data_in[21]
*129 la_data_in[22]
*130 la_data_in[23]
*131 la_data_in[24]
*132 la_data_in[25]
*133 la_data_in[26]
*134 la_data_in[27]
*135 la_data_in[28]
*136 la_data_in[29]
*137 la_data_in[2]
*138 la_data_in[30]
*139 la_data_in[31]
*140 la_data_in[32]
*141 la_data_in[33]
*142 la_data_in[34]
*143 la_data_in[35]
*144 la_data_in[36]
*145 la_data_in[37]
*146 la_data_in[38]
*147 la_data_in[39]
*148 la_data_in[3]
*149 la_data_in[40]
*150 la_data_in[41]
*151 la_data_in[42]
*152 la_data_in[43]
*153 la_data_in[44]
*154 la_data_in[45]
*155 la_data_in[46]
*156 la_data_in[47]
*157 la_data_in[48]
*158 la_data_in[49]
*159 la_data_in[4]
*160 la_data_in[50]
*161 la_data_in[51]
*162 la_data_in[52]
*163 la_data_in[53]
*164 la_data_in[54]
*165 la_data_in[55]
*166 la_data_in[56]
*167 la_data_in[57]
*168 la_data_in[58]
*169 la_data_in[59]
*170 la_data_in[5]
*171 la_data_in[60]
*172 la_data_in[61]
*173 la_data_in[62]
*174 la_data_in[63]
*175 la_data_in[6]
*176 la_data_in[7]
*177 la_data_in[8]
*178 la_data_in[9]
*179 la_data_out[0]
*180 la_data_out[10]
*181 la_data_out[11]
*182 la_data_out[12]
*183 la_data_out[13]
*184 la_data_out[14]
*185 la_data_out[15]
*186 la_data_out[16]
*187 la_data_out[17]
*188 la_data_out[18]
*189 la_data_out[19]
*190 la_data_out[1]
*191 la_data_out[20]
*192 la_data_out[21]
*193 la_data_out[22]
*194 la_data_out[23]
*195 la_data_out[24]
*196 la_data_out[25]
*197 la_data_out[26]
*198 la_data_out[27]
*199 la_data_out[28]
*200 la_data_out[29]
*201 la_data_out[2]
*202 la_data_out[30]
*203 la_data_out[31]
*204 la_data_out[32]
*205 la_data_out[33]
*206 la_data_out[34]
*207 la_data_out[35]
*208 la_data_out[36]
*209 la_data_out[37]
*210 la_data_out[38]
*211 la_data_out[39]
*212 la_data_out[3]
*213 la_data_out[40]
*214 la_data_out[41]
*215 la_data_out[42]
*216 la_data_out[43]
*217 la_data_out[44]
*218 la_data_out[45]
*219 la_data_out[46]
*220 la_data_out[47]
*221 la_data_out[48]
*222 la_data_out[49]
*223 la_data_out[4]
*224 la_data_out[50]
*225 la_data_out[51]
*226 la_data_out[52]
*227 la_data_out[53]
*228 la_data_out[54]
*229 la_data_out[55]
*230 la_data_out[56]
*231 la_data_out[57]
*232 la_data_out[58]
*233 la_data_out[59]
*234 la_data_out[5]
*235 la_data_out[60]
*236 la_data_out[61]
*237 la_data_out[62]
*238 la_data_out[63]
*239 la_data_out[6]
*240 la_data_out[7]
*241 la_data_out[8]
*242 la_data_out[9]
*243 la_oenb[0]
*244 la_oenb[10]
*245 la_oenb[11]
*246 la_oenb[12]
*247 la_oenb[13]
*248 la_oenb[14]
*249 la_oenb[15]
*250 la_oenb[16]
*251 la_oenb[17]
*252 la_oenb[18]
*253 la_oenb[19]
*254 la_oenb[1]
*255 la_oenb[20]
*256 la_oenb[21]
*257 la_oenb[22]
*258 la_oenb[23]
*259 la_oenb[24]
*260 la_oenb[25]
*261 la_oenb[26]
*262 la_oenb[27]
*263 la_oenb[28]
*264 la_oenb[29]
*265 la_oenb[2]
*266 la_oenb[30]
*267 la_oenb[31]
*268 la_oenb[32]
*269 la_oenb[33]
*270 la_oenb[34]
*271 la_oenb[35]
*272 la_oenb[36]
*273 la_oenb[37]
*274 la_oenb[38]
*275 la_oenb[39]
*276 la_oenb[3]
*277 la_oenb[40]
*278 la_oenb[41]
*279 la_oenb[42]
*280 la_oenb[43]
*281 la_oenb[44]
*282 la_oenb[45]
*283 la_oenb[46]
*284 la_oenb[47]
*285 la_oenb[48]
*286 la_oenb[49]
*287 la_oenb[4]
*288 la_oenb[50]
*289 la_oenb[51]
*290 la_oenb[52]
*291 la_oenb[53]
*292 la_oenb[54]
*293 la_oenb[55]
*294 la_oenb[56]
*295 la_oenb[57]
*296 la_oenb[58]
*297 la_oenb[59]
*298 la_oenb[5]
*299 la_oenb[60]
*300 la_oenb[61]
*301 la_oenb[62]
*302 la_oenb[63]
*303 la_oenb[6]
*304 la_oenb[7]
*305 la_oenb[8]
*306 la_oenb[9]
*307 user_clock2
*308 user_irq[0]
*309 user_irq[1]
*310 user_irq[2]
*313 wb_clk_i
*314 wb_rst_i
*315 wbs_ack_o
*316 wbs_adr_i[0]
*317 wbs_adr_i[10]
*318 wbs_adr_i[11]
*319 wbs_adr_i[12]
*320 wbs_adr_i[13]
*321 wbs_adr_i[14]
*322 wbs_adr_i[15]
*323 wbs_adr_i[16]
*324 wbs_adr_i[17]
*325 wbs_adr_i[18]
*326 wbs_adr_i[19]
*327 wbs_adr_i[1]
*328 wbs_adr_i[20]
*329 wbs_adr_i[21]
*330 wbs_adr_i[22]
*331 wbs_adr_i[23]
*332 wbs_adr_i[24]
*333 wbs_adr_i[25]
*334 wbs_adr_i[26]
*335 wbs_adr_i[27]
*336 wbs_adr_i[28]
*337 wbs_adr_i[29]
*338 wbs_adr_i[2]
*339 wbs_adr_i[30]
*340 wbs_adr_i[31]
*341 wbs_adr_i[3]
*342 wbs_adr_i[4]
*343 wbs_adr_i[5]
*344 wbs_adr_i[6]
*345 wbs_adr_i[7]
*346 wbs_adr_i[8]
*347 wbs_adr_i[9]
*348 wbs_cyc_i
*349 wbs_dat_i[0]
*350 wbs_dat_i[10]
*351 wbs_dat_i[11]
*352 wbs_dat_i[12]
*353 wbs_dat_i[13]
*354 wbs_dat_i[14]
*355 wbs_dat_i[15]
*356 wbs_dat_i[16]
*357 wbs_dat_i[17]
*358 wbs_dat_i[18]
*359 wbs_dat_i[19]
*360 wbs_dat_i[1]
*361 wbs_dat_i[20]
*362 wbs_dat_i[21]
*363 wbs_dat_i[22]
*364 wbs_dat_i[23]
*365 wbs_dat_i[24]
*366 wbs_dat_i[25]
*367 wbs_dat_i[26]
*368 wbs_dat_i[27]
*369 wbs_dat_i[28]
*370 wbs_dat_i[29]
*371 wbs_dat_i[2]
*372 wbs_dat_i[30]
*373 wbs_dat_i[31]
*374 wbs_dat_i[3]
*375 wbs_dat_i[4]
*376 wbs_dat_i[5]
*377 wbs_dat_i[6]
*378 wbs_dat_i[7]
*379 wbs_dat_i[8]
*380 wbs_dat_i[9]
*381 wbs_dat_o[0]
*382 wbs_dat_o[10]
*383 wbs_dat_o[11]
*384 wbs_dat_o[12]
*385 wbs_dat_o[13]
*386 wbs_dat_o[14]
*387 wbs_dat_o[15]
*388 wbs_dat_o[16]
*389 wbs_dat_o[17]
*390 wbs_dat_o[18]
*391 wbs_dat_o[19]
*392 wbs_dat_o[1]
*393 wbs_dat_o[20]
*394 wbs_dat_o[21]
*395 wbs_dat_o[22]
*396 wbs_dat_o[23]
*397 wbs_dat_o[24]
*398 wbs_dat_o[25]
*399 wbs_dat_o[26]
*400 wbs_dat_o[27]
*401 wbs_dat_o[28]
*402 wbs_dat_o[29]
*403 wbs_dat_o[2]
*404 wbs_dat_o[30]
*405 wbs_dat_o[31]
*406 wbs_dat_o[3]
*407 wbs_dat_o[4]
*408 wbs_dat_o[5]
*409 wbs_dat_o[6]
*410 wbs_dat_o[7]
*411 wbs_dat_o[8]
*412 wbs_dat_o[9]
*413 wbs_sel_i[0]
*414 wbs_sel_i[1]
*415 wbs_sel_i[2]
*416 wbs_sel_i[3]
*417 wbs_stb_i
*418 wbs_we_i
*419 mprj

*PORTS
io_in[0] I
io_in[10] I
io_in[11] I
io_in[12] I
io_in[13] I
io_in[14] I
io_in[15] I
io_in[16] I
io_in[17] I
io_in[18] I
io_in[19] I
io_in[1] I
io_in[20] I
io_in[21] I
io_in[22] I
io_in[23] I
io_in[24] I
io_in[25] I
io_in[26] I
io_in[27] I
io_in[28] I
io_in[29] I
io_in[2] I
io_in[30] I
io_in[31] I
io_in[32] I
io_in[33] I
io_in[34] I
io_in[35] I
io_in[36] I
io_in[37] I
io_in[3] I
io_in[4] I
io_in[5] I
io_in[6] I
io_in[7] I
io_in[8] I
io_in[9] I
io_oeb[0] O
io_oeb[10] O
io_oeb[11] O
io_oeb[12] O
io_oeb[13] O
io_oeb[14] O
io_oeb[15] O
io_oeb[16] O
io_oeb[17] O
io_oeb[18] O
io_oeb[19] O
io_oeb[1] O
io_oeb[20] O
io_oeb[21] O
io_oeb[22] O
io_oeb[23] O
io_oeb[24] O
io_oeb[25] O
io_oeb[26] O
io_oeb[27] O
io_oeb[28] O
io_oeb[29] O
io_oeb[2] O
io_oeb[30] O
io_oeb[31] O
io_oeb[32] O
io_oeb[33] O
io_oeb[34] O
io_oeb[35] O
io_oeb[36] O
io_oeb[37] O
io_oeb[3] O
io_oeb[4] O
io_oeb[5] O
io_oeb[6] O
io_oeb[7] O
io_oeb[8] O
io_oeb[9] O
io_out[0] O
io_out[10] O
io_out[11] O
io_out[12] O
io_out[13] O
io_out[14] O
io_out[15] O
io_out[16] O
io_out[17] O
io_out[18] O
io_out[19] O
io_out[1] O
io_out[20] O
io_out[21] O
io_out[22] O
io_out[23] O
io_out[24] O
io_out[25] O
io_out[26] O
io_out[27] O
io_out[28] O
io_out[29] O
io_out[2] O
io_out[30] O
io_out[31] O
io_out[32] O
io_out[33] O
io_out[34] O
io_out[35] O
io_out[36] O
io_out[37] O
io_out[3] O
io_out[4] O
io_out[5] O
io_out[6] O
io_out[7] O
io_out[8] O
io_out[9] O
la_data_in[0] I
la_data_in[10] I
la_data_in[11] I
la_data_in[12] I
la_data_in[13] I
la_data_in[14] I
la_data_in[15] I
la_data_in[16] I
la_data_in[17] I
la_data_in[18] I
la_data_in[19] I
la_data_in[1] I
la_data_in[20] I
la_data_in[21] I
la_data_in[22] I
la_data_in[23] I
la_data_in[24] I
la_data_in[25] I
la_data_in[26] I
la_data_in[27] I
la_data_in[28] I
la_data_in[29] I
la_data_in[2] I
la_data_in[30] I
la_data_in[31] I
la_data_in[32] I
la_data_in[33] I
la_data_in[34] I
la_data_in[35] I
la_data_in[36] I
la_data_in[37] I
la_data_in[38] I
la_data_in[39] I
la_data_in[3] I
la_data_in[40] I
la_data_in[41] I
la_data_in[42] I
la_data_in[43] I
la_data_in[44] I
la_data_in[45] I
la_data_in[46] I
la_data_in[47] I
la_data_in[48] I
la_data_in[49] I
la_data_in[4] I
la_data_in[50] I
la_data_in[51] I
la_data_in[52] I
la_data_in[53] I
la_data_in[54] I
la_data_in[55] I
la_data_in[56] I
la_data_in[57] I
la_data_in[58] I
la_data_in[59] I
la_data_in[5] I
la_data_in[60] I
la_data_in[61] I
la_data_in[62] I
la_data_in[63] I
la_data_in[6] I
la_data_in[7] I
la_data_in[8] I
la_data_in[9] I
la_data_out[0] O
la_data_out[10] O
la_data_out[11] O
la_data_out[12] O
la_data_out[13] O
la_data_out[14] O
la_data_out[15] O
la_data_out[16] O
la_data_out[17] O
la_data_out[18] O
la_data_out[19] O
la_data_out[1] O
la_data_out[20] O
la_data_out[21] O
la_data_out[22] O
la_data_out[23] O
la_data_out[24] O
la_data_out[25] O
la_data_out[26] O
la_data_out[27] O
la_data_out[28] O
la_data_out[29] O
la_data_out[2] O
la_data_out[30] O
la_data_out[31] O
la_data_out[32] O
la_data_out[33] O
la_data_out[34] O
la_data_out[35] O
la_data_out[36] O
la_data_out[37] O
la_data_out[38] O
la_data_out[39] O
la_data_out[3] O
la_data_out[40] O
la_data_out[41] O
la_data_out[42] O
la_data_out[43] O
la_data_out[44] O
la_data_out[45] O
la_data_out[46] O
la_data_out[47] O
la_data_out[48] O
la_data_out[49] O
la_data_out[4] O
la_data_out[50] O
la_data_out[51] O
la_data_out[52] O
la_data_out[53] O
la_data_out[54] O
la_data_out[55] O
la_data_out[56] O
la_data_out[57] O
la_data_out[58] O
la_data_out[59] O
la_data_out[5] O
la_data_out[60] O
la_data_out[61] O
la_data_out[62] O
la_data_out[63] O
la_data_out[6] O
la_data_out[7] O
la_data_out[8] O
la_data_out[9] O
la_oenb[0] I
la_oenb[10] I
la_oenb[11] I
la_oenb[12] I
la_oenb[13] I
la_oenb[14] I
la_oenb[15] I
la_oenb[16] I
la_oenb[17] I
la_oenb[18] I
la_oenb[19] I
la_oenb[1] I
la_oenb[20] I
la_oenb[21] I
la_oenb[22] I
la_oenb[23] I
la_oenb[24] I
la_oenb[25] I
la_oenb[26] I
la_oenb[27] I
la_oenb[28] I
la_oenb[29] I
la_oenb[2] I
la_oenb[30] I
la_oenb[31] I
la_oenb[32] I
la_oenb[33] I
la_oenb[34] I
la_oenb[35] I
la_oenb[36] I
la_oenb[37] I
la_oenb[38] I
la_oenb[39] I
la_oenb[3] I
la_oenb[40] I
la_oenb[41] I
la_oenb[42] I
la_oenb[43] I
la_oenb[44] I
la_oenb[45] I
la_oenb[46] I
la_oenb[47] I
la_oenb[48] I
la_oenb[49] I
la_oenb[4] I
la_oenb[50] I
la_oenb[51] I
la_oenb[52] I
la_oenb[53] I
la_oenb[54] I
la_oenb[55] I
la_oenb[56] I
la_oenb[57] I
la_oenb[58] I
la_oenb[59] I
la_oenb[5] I
la_oenb[60] I
la_oenb[61] I
la_oenb[62] I
la_oenb[63] I
la_oenb[6] I
la_oenb[7] I
la_oenb[8] I
la_oenb[9] I
user_clock2 I
user_irq[0] O
user_irq[1] O
user_irq[2] O
wb_clk_i I
wb_rst_i I
wbs_ack_o O
wbs_adr_i[0] I
wbs_adr_i[10] I
wbs_adr_i[11] I
wbs_adr_i[12] I
wbs_adr_i[13] I
wbs_adr_i[14] I
wbs_adr_i[15] I
wbs_adr_i[16] I
wbs_adr_i[17] I
wbs_adr_i[18] I
wbs_adr_i[19] I
wbs_adr_i[1] I
wbs_adr_i[20] I
wbs_adr_i[21] I
wbs_adr_i[22] I
wbs_adr_i[23] I
wbs_adr_i[24] I
wbs_adr_i[25] I
wbs_adr_i[26] I
wbs_adr_i[27] I
wbs_adr_i[28] I
wbs_adr_i[29] I
wbs_adr_i[2] I
wbs_adr_i[30] I
wbs_adr_i[31] I
wbs_adr_i[3] I
wbs_adr_i[4] I
wbs_adr_i[5] I
wbs_adr_i[6] I
wbs_adr_i[7] I
wbs_adr_i[8] I
wbs_adr_i[9] I
wbs_cyc_i I
wbs_dat_i[0] I
wbs_dat_i[10] I
wbs_dat_i[11] I
wbs_dat_i[12] I
wbs_dat_i[13] I
wbs_dat_i[14] I
wbs_dat_i[15] I
wbs_dat_i[16] I
wbs_dat_i[17] I
wbs_dat_i[18] I
wbs_dat_i[19] I
wbs_dat_i[1] I
wbs_dat_i[20] I
wbs_dat_i[21] I
wbs_dat_i[22] I
wbs_dat_i[23] I
wbs_dat_i[24] I
wbs_dat_i[25] I
wbs_dat_i[26] I
wbs_dat_i[27] I
wbs_dat_i[28] I
wbs_dat_i[29] I
wbs_dat_i[2] I
wbs_dat_i[30] I
wbs_dat_i[31] I
wbs_dat_i[3] I
wbs_dat_i[4] I
wbs_dat_i[5] I
wbs_dat_i[6] I
wbs_dat_i[7] I
wbs_dat_i[8] I
wbs_dat_i[9] I
wbs_dat_o[0] O
wbs_dat_o[10] O
wbs_dat_o[11] O
wbs_dat_o[12] O
wbs_dat_o[13] O
wbs_dat_o[14] O
wbs_dat_o[15] O
wbs_dat_o[16] O
wbs_dat_o[17] O
wbs_dat_o[18] O
wbs_dat_o[19] O
wbs_dat_o[1] O
wbs_dat_o[20] O
wbs_dat_o[21] O
wbs_dat_o[22] O
wbs_dat_o[23] O
wbs_dat_o[24] O
wbs_dat_o[25] O
wbs_dat_o[26] O
wbs_dat_o[27] O
wbs_dat_o[28] O
wbs_dat_o[29] O
wbs_dat_o[2] O
wbs_dat_o[30] O
wbs_dat_o[31] O
wbs_dat_o[3] O
wbs_dat_o[4] O
wbs_dat_o[5] O
wbs_dat_o[6] O
wbs_dat_o[7] O
wbs_dat_o[8] O
wbs_dat_o[9] O
wbs_sel_i[0] I
wbs_sel_i[1] I
wbs_sel_i[2] I
wbs_sel_i[3] I
wbs_stb_i I
wbs_we_i I

*D_NET *1 0.660407
*CONN
*P io_in[0] I
*I *419:io_in[0] I *D user_proj_example
*CAP
1 io_in[0] 0.000442546
2 *419:io_in[0] 0.00181423
3 *1:11 0.0438253
4 *1:10 0.042011
5 *1:8 0.0532584
6 *1:7 0.053701
7 *1:8 *12:8 0.259117
8 *1:11 *24:11 0.0901036
9 *1:11 *32:19 0.111996
10 *1:11 *63:8 0.00413724
*RES
1 io_in[0] *1:7 6.885 
2 *1:7 *1:8 737.19 
3 *1:8 *1:10 4.5 
4 *1:10 *1:11 581.49 
5 *1:11 *419:io_in[0] 16.785 
*END

*D_NET *2 0.201852
*CONN
*P io_in[10] I
*I *419:io_in[10] I *D user_proj_example
*CAP
1 io_in[10] 0.038239
2 *419:io_in[10] 0.000317624
3 *2:11 0.00435665
4 *2:10 0.00403902
5 *2:8 0.00943773
6 *2:7 0.00943773
7 *2:5 0.038239
8 *2:8 *29:16 0.0022993
9 *2:8 *106:11 0
10 *2:11 *419:io_in[36] 0.001846
11 *2:11 *12:11 0.000109712
12 *2:11 *12:21 0.00194653
13 *2:11 *12:23 1.68787e-05
14 *2:11 *21:19 0.0545367
15 *2:11 *28:11 0.0228661
16 *2:11 *33:15 0.0141645
*RES
1 io_in[10] *2:5 295.425 
2 *2:5 *2:7 4.5 
3 *2:7 *2:8 80.55 
4 *2:8 *2:10 4.5 
5 *2:10 *2:11 212.85 
6 *2:11 *419:io_in[10] 15.21 
*END

*D_NET *3 0.232503
*CONN
*P io_in[11] I
*I *419:io_in[11] I *D user_proj_example
*CAP
1 io_in[11] 0.000493126
2 *419:io_in[11] 0.000357413
3 *3:19 0.00298511
4 *3:18 0.00570515
5 *3:13 0.0402229
6 *3:11 0.0376386
7 *419:io_in[11] *41:9 0
8 *3:18 *30:16 0
9 *3:19 *419:io_in[37] 0.00309186
10 *3:19 *25:19 0.0050335
11 *3:19 *58:8 0.0489302
12 *3:19 *79:8 0.0825611
13 *3:19 *113:8 0.00548375
*RES
1 io_in[11] *3:11 2.655 
2 *3:11 *3:13 287.37 
3 *3:13 *3:18 31.59 
4 *3:18 *3:19 213.39 
5 *3:19 *419:io_in[11] 6.705 
*END

*D_NET *4 0.14215
*CONN
*P io_in[12] I
*I *419:io_in[12] I *D user_proj_example
*CAP
1 io_in[12] 0.000377609
2 *419:io_in[12] 0.00126468
3 *4:19 0.0069867
4 *4:13 0.0688078
5 *4:11 0.0634633
6 *4:13 *46:10 0
7 *4:13 *87:14 0
8 *4:19 *40:8 0.00124957
9 *4:19 *42:12 0
10 *4:19 *70:8 0
*RES
1 io_in[12] *4:11 2.115 
2 *4:11 *4:13 489.87 
3 *4:13 *4:19 49.32 
4 *4:19 *419:io_in[12] 12.105 
*END

*D_NET *5 0.194997
*CONN
*P io_in[13] I
*I *419:io_in[13] I *D user_proj_example
*CAP
1 io_in[13] 0.00039943
2 *419:io_in[13] 0.00502782
3 *5:11 0.0598904
4 *5:10 0.0548626
5 *5:8 0.00591142
6 *5:7 0.00631085
7 *419:io_in[13] *42:13 0
8 *5:8 *6:8 0.0243022
9 *5:8 *44:17 0.00191186
10 *5:11 *42:12 8.81e-05
11 *5:11 *57:10 0
12 *5:11 *81:14 0.0314356
13 *5:11 *103:14 0.00485707
14 *5:11 *108:14 0
*RES
1 io_in[13] *5:7 6.525 
2 *5:7 *5:8 80.73 
3 *5:8 *5:10 4.5 
4 *5:10 *5:11 483.75 
5 *5:11 *419:io_in[13] 34.425 
*END

*D_NET *6 0.220858
*CONN
*P io_in[14] I
*I *419:io_in[14] I *D user_proj_example
*CAP
1 io_in[14] 0.000420988
2 *419:io_in[14] 0.00250695
3 *6:16 0.00750514
4 *6:11 0.0663272
5 *6:10 0.061329
6 *6:8 0.00424649
7 *6:7 0.00466747
8 *419:io_in[14] *44:13 0
9 *6:8 *44:17 0.0495525
10 *6:16 *80:11 0
11 *5:8 *6:8 0.0243022
*RES
1 io_in[14] *6:7 6.705 
2 *6:7 *6:8 126.09 
3 *6:8 *6:10 4.5 
4 *6:10 *6:11 477.99 
5 *6:11 *6:16 39.33 
6 *6:16 *419:io_in[14] 16.065 
*END

*D_NET *7 0.305312
*CONN
*P io_in[15] I
*I *419:io_in[15] I *D user_proj_example
*CAP
1 io_in[15] 0.000326721
2 *419:io_in[15] 0.00257111
3 *7:11 0.030662
4 *7:10 0.0280909
5 *7:8 0.0380319
6 *7:7 0.0383587
7 *7:8 *15:8 0.000433484
8 *7:8 *16:8 0.023445
9 *7:8 *45:14 0.143392
*RES
1 io_in[15] *7:7 6.705 
2 *7:7 *7:8 453.87 
3 *7:8 *7:10 4.5 
4 *7:10 *7:11 210.96 
5 *7:11 *419:io_in[15] 16.695 
*END

*D_NET *8 0.19379
*CONN
*P io_in[16] I
*I *419:io_in[16] I *D user_proj_example
*CAP
1 io_in[16] 0.000251836
2 *419:io_in[16] 0.00127869
3 *8:11 0.0308207
4 *8:10 0.029542
5 *8:8 0.0266056
6 *8:7 0.0268574
7 *419:io_in[16] *20:13 0.00103596
8 *419:io_in[16] *46:9 0
9 *419:io_in[16] *89:8 0.00043657
10 *8:8 *14:16 0.0134956
11 *8:8 *15:8 0.0169405
12 *8:8 *45:14 0.0465255
13 *8:11 *46:9 0
*RES
1 io_in[16] *8:7 6.165 
2 *8:7 *8:8 334.89 
3 *8:8 *8:10 4.5 
4 *8:10 *8:11 219.69 
5 *8:11 *419:io_in[16] 18.315 
*END

*D_NET *9 0.119332
*CONN
*P io_in[17] I
*I *419:io_in[17] I *D user_proj_example
*CAP
1 io_in[17] 0.0037891
2 *419:io_in[17] 9.76714e-05
3 *9:19 0.0275763
4 *9:18 0.0274786
5 *9:16 0.0283004
6 *9:15 0.0320895
7 *9:19 *84:7 0
*RES
1 io_in[17] *9:15 32.985 
2 *9:15 *9:16 221.49 
3 *9:16 *9:18 4.5 
4 *9:18 *9:19 202.41 
5 *9:19 *419:io_in[17] 0.765 
*END

*D_NET *10 0.10471
*CONN
*P io_in[18] I
*I *419:io_in[18] I *D user_proj_example
*CAP
1 io_in[18] 0.000912291
2 *419:io_in[18] 0.0017105
3 *10:11 0.0304295
4 *10:10 0.028719
5 *10:8 0.0102643
6 *10:7 0.0111765
7 *419:io_in[18] *40:8 0.00263256
8 *419:io_in[18] *70:8 0
9 *10:8 io_out[18] 0.00388806
10 *10:8 *13:8 0.00111452
11 *10:8 *85:16 0.0138052
12 *10:11 *419:io_in[19] 5.793e-05
13 *10:11 *49:13 0
*RES
1 io_in[18] *10:7 10.845 
2 *10:7 *10:8 102.15 
3 *10:8 *10:10 4.5 
4 *10:10 *10:11 213.93 
5 *10:11 *419:io_in[18] 23.175 
*END

*D_NET *11 0.0665783
*CONN
*P io_in[19] I
*I *419:io_in[19] I *D user_proj_example
*CAP
1 io_in[19] 0.000303963
2 *419:io_in[19] 0.00220146
3 *11:13 0.03139
4 *11:11 0.0294925
5 *419:io_in[19] *24:11 0
6 *419:io_in[19] *37:19 0.00313257
7 *419:io_in[19] *49:13 0
8 *10:11 *419:io_in[19] 5.793e-05
*RES
1 io_in[19] *11:11 2.475 
2 *11:11 *11:13 217.53 
3 *11:13 *419:io_in[19] 27.135 
*END

*D_NET *12 0.646292
*CONN
*P io_in[1] I
*I *419:io_in[1] I *D user_proj_example
*CAP
1 io_in[1] 0.000420988
2 *419:io_in[1] 0.000134198
3 *12:23 0.00145664
4 *12:21 0.00189623
5 *12:11 0.0341028
6 *12:10 0.033529
7 *12:8 0.0431405
8 *12:7 0.0435615
9 *419:io_in[1] *419:io_in[2] 0.00159558
10 *419:io_in[1] *28:11 0.00068515
11 *12:11 *419:io_in[36] 0.0084373
12 *12:11 *33:15 0.000638626
13 *12:11 *73:9 0
14 *12:11 *75:11 0.0287621
15 *12:21 *34:11 6.58031e-05
16 *12:21 *75:5 0.00259911
17 *12:21 *75:11 4.72127e-05
18 *12:23 *419:io_in[2] 0.000668238
19 *12:23 *28:11 0.0981624
20 *12:23 *34:11 0.0046473
21 *12:23 *75:5 0.0776909
22 *12:23 *98:5 0.00286055
23 *1:8 *12:8 0.259117
24 *2:11 *12:11 0.000109712
25 *2:11 *12:21 0.00194653
26 *2:11 *12:23 1.68787e-05
*RES
1 io_in[1] *12:7 6.705 
2 *12:7 *12:8 659.43 
3 *12:8 *12:10 4.5 
4 *12:10 *12:11 308.79 
5 *12:11 *12:21 16.74 
6 *12:21 *12:23 245.79 
7 *12:23 *419:io_in[1] 8.91 
*END

*D_NET *13 0.0956261
*CONN
*P io_in[20] I
*I *419:io_in[20] I *D user_proj_example
*CAP
1 io_in[20] 0.000933924
2 *419:io_in[20] 0.00174089
3 *13:11 0.0300274
4 *13:10 0.0282865
5 *13:8 0.0145307
6 *13:7 0.0154646
7 *419:io_in[20] *40:8 0.00235462
8 *419:io_in[20] *51:9 0
9 *419:io_in[20] *70:8 0
10 *13:11 *49:13 0.0011728
11 *13:11 *87:13 0
12 *10:8 *13:8 0.00111452
*RES
1 io_in[20] *13:7 11.025 
2 *13:7 *13:8 114.21 
3 *13:8 *13:10 4.5 
4 *13:10 *13:11 213.75 
5 *13:11 *419:io_in[20] 22.635 
*END

*D_NET *14 0.147433
*CONN
*P io_in[21] I
*I *419:io_in[21] I *D user_proj_example
*CAP
1 io_in[21] 0.000422025
2 *419:io_in[21] 0.000166616
3 *14:19 0.0308014
4 *14:18 0.0306348
5 *14:16 0.0198124
6 *14:15 0.0202344
7 *14:16 *15:8 0.0318655
8 *14:19 *89:7 0
9 *8:8 *14:16 0.0134956
*RES
1 io_in[21] *14:15 7.785 
2 *14:15 *14:16 232.29 
3 *14:16 *14:18 4.5 
4 *14:18 *14:19 226.35 
5 *14:19 *419:io_in[21] 1.305 
*END

*D_NET *15 0.223828
*CONN
*P io_in[22] I
*I *419:io_in[22] I *D user_proj_example
*CAP
1 io_in[22] 0.000274817
2 *419:io_in[22] 0.00115151
3 *15:11 0.0272314
4 *15:10 0.0260799
5 *15:8 0.0251464
6 *15:7 0.0254212
7 *419:io_in[22] *20:13 0.0008355
8 *419:io_in[22] *92:8 0.000211605
9 *15:8 *16:8 0.028627
10 *15:8 *45:14 0.020454
11 *15:11 *53:7 0.0191547
12 *15:11 *82:17 0
13 *7:8 *15:8 0.000433484
14 *8:8 *15:8 0.0169405
15 *14:16 *15:8 0.0318655
*RES
1 io_in[22] *15:7 6.345 
2 *15:7 *15:8 351.45 
3 *15:8 *15:10 4.5 
4 *15:10 *15:11 219.51 
5 *15:11 *419:io_in[22] 17.775 
*END

*D_NET *16 0.226698
*CONN
*P io_in[23] I
*I *419:io_in[23] I *D user_proj_example
*CAP
1 io_in[23] 0.000353099
2 *419:io_in[23] 0.00235149
3 *16:11 0.0303887
4 *16:10 0.0280372
5 *16:8 0.0565712
6 *16:7 0.0569243
7 *7:8 *16:8 0.023445
8 *15:8 *16:8 0.028627
*RES
1 io_in[23] *16:7 6.885 
2 *16:7 *16:8 463.41 
3 *16:8 *16:10 4.5 
4 *16:10 *16:11 210.78 
5 *16:11 *419:io_in[23] 14.985 
*END

*D_NET *17 0.212803
*CONN
*P io_in[24] I
*I *419:io_in[24] I *D user_proj_example
*CAP
1 io_in[24] 0.0655699
2 *419:io_in[24] 0.00572029
3 *17:11 0.0105659
4 *17:10 0.00484559
5 *17:8 0.0235934
6 *17:7 0.0235934
7 *17:5 0.0655699
8 *419:io_in[24] *81:17 0.00013663
9 *419:io_in[24] *92:7 0
10 *17:8 *47:7 0
11 *17:8 *85:9 0
12 *17:11 *66:14 0
13 *17:11 *82:14 0.0132076
*RES
1 io_in[24] *17:5 511.065 
2 *17:5 *17:7 4.5 
3 *17:7 *17:8 179.55 
4 *17:8 *17:10 4.5 
5 *17:10 *17:11 47.61 
6 *17:11 *419:io_in[24] 42.075 
*END

*D_NET *18 0.186561
*CONN
*P io_in[25] I
*I *419:io_in[25] I *D user_proj_example
*CAP
1 io_in[25] 0.000416115
2 *419:io_in[25] 0.00251963
3 *18:16 0.0199958
4 *18:15 0.0174761
5 *18:13 0.0728685
6 *18:11 0.0732846
7 *419:io_in[25] *93:7 0
*RES
1 io_in[25] *18:11 2.295 
2 *18:11 *18:13 566.55 
3 *18:13 *18:15 4.5 
4 *18:15 *18:16 129.78 
5 *18:16 *419:io_in[25] 16.695 
*END

*D_NET *19 0.170354
*CONN
*P io_in[26] I
*I *419:io_in[26] I *D user_proj_example
*CAP
1 io_in[26] 0.000178104
2 *419:io_in[26] 0.000166616
3 *19:16 0.0110814
4 *19:15 0.0109148
5 *19:13 0.0739174
6 *19:11 0.0740955
*RES
1 io_in[26] *19:11 1.215 
2 *19:11 *19:13 574.65 
3 *19:13 *19:15 4.5 
4 *19:15 *19:16 76.95 
5 *19:16 *419:io_in[26] 1.305 
*END

*D_NET *20 0.241141
*CONN
*P io_in[27] I
*I *419:io_in[27] I *D user_proj_example
*CAP
1 io_in[27] 0.000546072
2 *419:io_in[27] 0.00101243
3 *20:13 0.0612296
4 *20:11 0.0607633
5 *20:13 *50:8 0.0728283
6 *20:13 *54:8 0.000746354
7 *20:13 *55:8 0
8 *20:13 *72:13 0.0029524
9 *20:13 *80:10 0.00234447
10 *20:13 *84:8 0.00116145
11 *20:13 *89:8 0.0138987
12 *20:13 *92:8 0.0217862
13 *20:13 *93:8 0
14 *419:io_in[16] *20:13 0.00103596
15 *419:io_in[22] *20:13 0.0008355
*RES
1 io_in[27] *20:11 2.835 
2 *20:11 *20:13 583.47 
3 *20:13 *419:io_in[27] 11.205 
*END

*D_NET *21 0.28214
*CONN
*P io_in[28] I
*I *419:io_in[28] I *D user_proj_example
*CAP
1 io_in[28] 0.000298779
2 *419:io_in[28] 0.000356336
3 *21:19 0.00327508
4 *21:18 0.00291874
5 *21:16 0.00763586
6 *21:15 0.00763586
7 *21:13 0.0592682
8 *21:11 0.059567
9 *21:16 *39:11 0
10 *21:16 *77:11 0
11 *21:19 *28:11 0.00728008
12 *21:19 *33:15 0.0725944
13 *21:19 *65:9 0.00677311
14 *2:11 *21:19 0.0545367
*RES
1 io_in[28] *21:11 1.755 
2 *21:11 *21:13 373.41 
3 *21:13 *21:15 4.5 
4 *21:15 *21:16 58.77 
5 *21:16 *21:18 4.5 
6 *21:18 *21:19 217.71 
7 *21:19 *419:io_in[28] 15.39 
*END

*D_NET *22 0.258463
*CONN
*P io_in[29] I
*I *419:io_in[29] I *D user_proj_example
*CAP
1 io_in[29] 0.0478078
2 *419:io_in[29] 0.00195533
3 *22:11 0.0175688
4 *22:10 0.0156135
5 *22:8 0.0185743
6 *22:7 0.0185743
7 *22:5 0.0478078
8 *419:io_in[29] *60:13 0
9 *22:8 *23:16 0
10 *22:8 *77:11 0
11 *22:8 *89:11 0
12 *22:11 *63:8 0.0905616
*RES
1 io_in[29] *22:5 370.665 
2 *22:5 *22:7 4.5 
3 *22:7 *22:8 141.21 
4 *22:8 *22:10 4.5 
5 *22:10 *22:11 227.97 
6 *22:11 *419:io_in[29] 17.325 
*END

*D_NET *23 0.435372
*CONN
*P io_in[2] I
*I *419:io_in[2] I *D user_proj_example
*CAP
1 io_in[2] 0.000377609
2 *419:io_in[2] 0.000419135
3 *23:16 0.0534868
4 *23:15 0.0530677
5 *23:13 0.0795377
6 *23:11 0.0799153
7 *419:io_in[2] *28:11 0.00218386
8 *419:io_in[2] *98:5 0.0100429
9 *23:16 *265:9 0.154077
10 *419:io_in[1] *419:io_in[2] 0.00159558
11 *12:23 *419:io_in[2] 0.000668238
12 *22:8 *23:16 0
*RES
1 io_in[2] *23:11 2.115 
2 *23:11 *23:13 593.91 
3 *23:13 *23:15 4.5 
4 *23:15 *23:16 597.33 
5 *23:16 *419:io_in[2] 34.29 
*END

*D_NET *24 0.278642
*CONN
*P io_in[30] I
*I *419:io_in[30] I *D user_proj_example
*CAP
1 io_in[30] 0.0019584
2 *419:io_in[30] 0.00179949
3 *24:11 0.0627183
4 *24:10 0.0609188
5 *24:8 0.0272132
6 *24:7 0.0291716
7 *419:io_in[30] *62:13 0
8 *24:11 *63:8 0.00475895
9 *419:io_in[19] *24:11 0
10 *1:11 *24:11 0.0901036
*RES
1 io_in[30] *24:7 16.065 
2 *24:7 *24:8 208.71 
3 *24:8 *24:10 4.5 
4 *24:10 *24:11 594.63 
5 *24:11 *419:io_in[30] 16.605 
*END

*D_NET *25 0.363736
*CONN
*P io_in[31] I
*I *419:io_in[31] I *D user_proj_example
*CAP
1 io_in[31] 0.000178104
2 *419:io_in[31] 0.00026352
3 *25:19 0.00224132
4 *25:18 0.0019778
5 *25:16 0.0313609
6 *25:15 0.0313609
7 *25:13 0.0482359
8 *25:11 0.048414
9 *25:13 *351:14 0
10 *25:16 *137:11 0.0256738
11 *25:19 *58:8 0.0875377
12 *25:19 *97:8 0.0145219
13 *25:19 *113:8 0.0669367
14 *3:19 *25:19 0.0050335
*RES
1 io_in[31] *25:11 1.215 
2 *25:11 *25:13 365.49 
3 *25:13 *25:15 4.5 
4 *25:15 *25:16 267.93 
5 *25:16 *25:18 4.5 
6 *25:18 *25:19 248.31 
7 *25:19 *419:io_in[31] 6.345 
*END

*D_NET *26 0.374916
*CONN
*P io_in[32] I
*I *419:io_in[32] I *D user_proj_example
*CAP
1 io_in[32] 0.000546072
2 *419:io_in[32] 0.00172915
3 *26:19 0.00848882
4 *26:18 0.00675967
5 *26:16 0.0462633
6 *26:15 0.0462633
7 *26:13 0.0472328
8 *26:11 0.0477788
9 *26:13 *190:18 0
10 *26:16 *190:21 0
11 *26:19 *37:19 0.0719755
12 *26:19 *64:8 0.00596285
13 *26:19 *96:8 0.0919158
*RES
1 io_in[32] *26:11 2.835 
2 *26:11 *26:13 357.21 
3 *26:13 *26:15 4.5 
4 *26:15 *26:16 346.23 
5 *26:16 *26:18 4.5 
6 *26:18 *26:19 264.15 
7 *26:19 *419:io_in[32] 14.445 
*END

*D_NET *27 0.413843
*CONN
*P io_in[33] I
*I *419:io_in[33] I *D user_proj_example
*CAP
1 io_in[33] 0.000298779
2 *419:io_in[33] 0.00265033
3 *27:19 0.00620395
4 *27:18 0.00355362
5 *27:16 0.0561064
6 *27:15 0.0561064
7 *27:13 0.0463997
8 *27:11 0.0466984
9 *27:13 *370:8 0
10 *27:16 *148:19 0
11 *27:16 *243:13 0
12 *27:19 *60:14 0.0982426
13 *27:19 *68:10 0.0106953
14 *27:19 *71:14 0.0868881
*RES
1 io_in[33] *27:11 1.755 
2 *27:11 *27:13 351.81 
3 *27:13 *27:15 4.5 
4 *27:15 *27:16 421.65 
5 *27:16 *27:18 4.5 
6 *27:18 *27:19 276.93 
7 *27:19 *419:io_in[33] 22.725 
*END

*D_NET *28 0.362021
*CONN
*P io_in[34] I
*I *419:io_in[34] I *D user_proj_example
*CAP
1 io_in[34] 0.000912206
2 *419:io_in[34] 0.000177196
3 *28:11 0.0512644
4 *28:10 0.0510872
5 *28:8 0.0610934
6 *28:7 0.0620057
7 *28:11 *65:9 0.00160334
8 *28:11 *98:5 0.00270037
9 *419:io_in[1] *28:11 0.00068515
10 *419:io_in[2] *28:11 0.00218386
11 *2:11 *28:11 0.0228661
12 *12:23 *28:11 0.0981624
13 *21:19 *28:11 0.00728008
*RES
1 io_in[34] *28:7 10.665 
2 *28:7 *28:8 469.53 
3 *28:8 *28:10 4.5 
4 *28:10 *28:11 630.27 
5 *28:11 *419:io_in[34] 14.31 
*END

*D_NET *29 0.427269
*CONN
*P io_in[35] I
*I *419:io_in[35] I *D user_proj_example
*CAP
1 io_in[35] 0.000416115
2 *419:io_in[35] 0.00122745
3 *29:16 0.0493741
4 *29:15 0.0481466
5 *29:13 0.0891727
6 *29:11 0.0895888
7 *419:io_in[35] *67:13 0
8 *419:io_in[35] *106:10 0.00408282
9 *419:io_in[35] *113:8 0.00900864
10 *29:13 *201:16 0
11 *29:16 *143:5 0.133953
12 *2:8 *29:16 0.0022993
*RES
1 io_in[35] *29:11 2.295 
2 *29:11 *29:13 666.63 
3 *29:13 *29:15 4.5 
4 *29:15 *29:16 542.97 
5 *29:16 *419:io_in[35] 33.255 
*END

*D_NET *30 0.354089
*CONN
*P io_in[36] I
*I *419:io_in[36] I *D user_proj_example
*CAP
1 io_in[36] 0.000178104
2 *419:io_in[36] 0.000696361
3 *30:16 0.0804731
4 *30:15 0.0797768
5 *30:13 0.0902001
6 *30:11 0.0903782
7 *419:io_in[36] *33:15 0.000443806
8 *419:io_in[36] *34:11 0.000829645
9 *419:io_in[36] *36:19 0.000829645
10 *2:11 *419:io_in[36] 0.001846
11 *3:18 *30:16 0
12 *12:11 *419:io_in[36] 0.0084373
*RES
1 io_in[36] *30:11 1.215 
2 *30:11 *30:13 674.55 
3 *30:13 *30:15 4.5 
4 *30:15 *30:16 607.59 
5 *30:16 *419:io_in[36] 42.03 
*END

*D_NET *31 0.492447
*CONN
*P io_in[37] I
*I *419:io_in[37] I *D user_proj_example
*CAP
1 io_in[37] 0.000546072
2 *419:io_in[37] 0.000623297
3 *31:16 0.062743
4 *31:15 0.0621197
5 *31:13 0.0909347
6 *31:11 0.0914807
7 *419:io_in[37] *79:8 0.000466079
8 *419:io_in[37] *113:8 0.00836746
9 *31:13 *39:14 0
10 *31:16 *272:13 0.172074
11 *3:19 *419:io_in[37] 0.00309186
*RES
1 io_in[37] *31:11 2.835 
2 *31:11 *31:13 680.13 
3 *31:13 *31:15 4.5 
4 *31:15 *31:16 681.03 
5 *31:16 *419:io_in[37] 31.995 
*END

*D_NET *32 0.43045
*CONN
*P io_in[3] I
*I *419:io_in[3] I *D user_proj_example
*CAP
1 io_in[3] 0.000259274
2 *419:io_in[3] 0.00186918
3 *32:19 0.00765198
4 *32:18 0.0057828
5 *32:16 0.0720001
6 *32:15 0.0720001
7 *32:13 0.0367745
8 *32:11 0.0370338
9 *32:16 *145:9 0
10 *32:16 *208:17 0
11 *32:19 *63:8 0.0850818
12 *1:11 *32:19 0.111996
*RES
1 io_in[3] *32:11 1.575 
2 *32:11 *32:13 279.27 
3 *32:13 *32:15 4.5 