*SPEF "ieee 1481-1999"
*DESIGN "user_project_wrapper"
*DATE "11:11:11 Fri 11 11, 1111"
*VENDOR "OpenRCX"
*PROGRAM "Parallel Extraction"
*VERSION "1.0"
*DESIGN_FLOW "NAME_SCOPE LOCAL" "PIN_CAP NONE"
*DIVIDER /
*DELIMITER :
*BUS_DELIMITER []
*T_UNIT 1 NS
*C_UNIT 1 PF
*R_UNIT 1 OHM
*L_UNIT 1 HENRY

*NAME_MAP
*1 io_in[0]
*2 io_in[10]
*3 io_in[11]
*4 io_in[12]
*5 io_in[13]
*6 io_in[14]
*7 io_in[15]
*8 io_in[16]
*9 io_in[17]
*10 io_in[18]
*11 io_in[19]
*12 io_in[1]
*13 io_in[20]
*14 io_in[21]
*15 io_in[22]
*16 io_in[23]
*17 io_in[24]
*18 io_in[25]
*19 io_in[26]
*20 io_in[27]
*21 io_in[28]
*22 io_in[29]
*23 io_in[2]
*24 io_in[30]
*25 io_in[31]
*26 io_in[32]
*27 io_in[33]
*28 io_in[34]
*29 io_in[35]
*30 io_in[36]
*31 io_in[37]
*32 io_in[3]
*33 io_in[4]
*34 io_in[5]
*35 io_in[6]
*36 io_in[7]
*37 io_in[8]
*38 io_in[9]
*39 io_oeb[0]
*40 io_oeb[10]
*41 io_oeb[11]
*42 io_oeb[12]
*43 io_oeb[13]
*44 io_oeb[14]
*45 io_oeb[15]
*46 io_oeb[16]
*47 io_oeb[17]
*48 io_oeb[18]
*49 io_oeb[19]
*50 io_oeb[1]
*51 io_oeb[20]
*52 io_oeb[21]
*53 io_oeb[22]
*54 io_oeb[23]
*55 io_oeb[24]
*56 io_oeb[25]
*57 io_oeb[26]
*58 io_oeb[27]
*59 io_oeb[28]
*60 io_oeb[29]
*61 io_oeb[2]
*62 io_oeb[30]
*63 io_oeb[31]
*64 io_oeb[32]
*65 io_oeb[33]
*66 io_oeb[34]
*67 io_oeb[35]
*68 io_oeb[36]
*69 io_oeb[37]
*70 io_oeb[3]
*71 io_oeb[4]
*72 io_oeb[5]
*73 io_oeb[6]
*74 io_oeb[7]
*75 io_oeb[8]
*76 io_oeb[9]
*77 io_out[0]
*78 io_out[10]
*79 io_out[11]
*80 io_out[12]
*81 io_out[13]
*82 io_out[14]
*83 io_out[15]
*84 io_out[16]
*85 io_out[17]
*86 io_out[18]
*87 io_out[19]
*88 io_out[1]
*89 io_out[20]
*90 io_out[21]
*91 io_out[22]
*92 io_out[23]
*93 io_out[24]
*94 io_out[25]
*95 io_out[26]
*96 io_out[27]
*97 io_out[28]
*98 io_out[29]
*99 io_out[2]
*100 io_out[30]
*101 io_out[31]
*102 io_out[32]
*103 io_out[33]
*104 io_out[34]
*105 io_out[35]
*106 io_out[36]
*107 io_out[37]
*108 io_out[3]
*109 io_out[4]
*110 io_out[5]
*111 io_out[6]
*112 io_out[7]
*113 io_out[8]
*114 io_out[9]
*115 la_data_in[0]
*116 la_data_in[10]
*117 la_data_in[11]
*118 la_data_in[12]
*119 la_data_in[13]
*120 la_data_in[14]
*121 la_data_in[15]
*122 la_data_in[16]
*123 la_data_in[17]
*124 la_data_in[18]
*125 la_data_in[19]
*126 la_data_in[1]
*127 la_data_in[20]
*128 la_data_in[21]
*129 la_data_in[22]
*130 la_data_in[23]
*131 la_data_in[24]
*132 la_data_in[25]
*133 la_data_in[26]
*134 la_data_in[27]
*135 la_data_in[28]
*136 la_data_in[29]
*137 la_data_in[2]
*138 la_data_in[30]
*139 la_data_in[31]
*140 la_data_in[32]
*141 la_data_in[33]
*142 la_data_in[34]
*143 la_data_in[35]
*144 la_data_in[36]
*145 la_data_in[37]
*146 la_data_in[38]
*147 la_data_in[39]
*148 la_data_in[3]
*149 la_data_in[40]
*150 la_data_in[41]
*151 la_data_in[42]
*152 la_data_in[43]
*153 la_data_in[44]
*154 la_data_in[45]
*155 la_data_in[46]
*156 la_data_in[47]
*157 la_data_in[48]
*158 la_data_in[49]
*159 la_data_in[4]
*160 la_data_in[50]
*161 la_data_in[51]
*162 la_data_in[52]
*163 la_data_in[53]
*164 la_data_in[54]
*165 la_data_in[55]
*166 la_data_in[56]
*167 la_data_in[57]
*168 la_data_in[58]
*169 la_data_in[59]
*170 la_data_in[5]
*171 la_data_in[60]
*172 la_data_in[61]
*173 la_data_in[62]
*174 la_data_in[63]
*175 la_data_in[6]
*176 la_data_in[7]
*177 la_data_in[8]
*178 la_data_in[9]
*179 la_data_out[0]
*180 la_data_out[10]
*181 la_data_out[11]
*182 la_data_out[12]
*183 la_data_out[13]
*184 la_data_out[14]
*185 la_data_out[15]
*186 la_data_out[16]
*187 la_data_out[17]
*188 la_data_out[18]
*189 la_data_out[19]
*190 la_data_out[1]
*191 la_data_out[20]
*192 la_data_out[21]
*193 la_data_out[22]
*194 la_data_out[23]
*195 la_data_out[24]
*196 la_data_out[25]
*197 la_data_out[26]
*198 la_data_out[27]
*199 la_data_out[28]
*200 la_data_out[29]
*201 la_data_out[2]
*202 la_data_out[30]
*203 la_data_out[31]
*204 la_data_out[32]
*205 la_data_out[33]
*206 la_data_out[34]
*207 la_data_out[35]
*208 la_data_out[36]
*209 la_data_out[37]
*210 la_data_out[38]
*211 la_data_out[39]
*212 la_data_out[3]
*213 la_data_out[40]
*214 la_data_out[41]
*215 la_data_out[42]
*216 la_data_out[43]
*217 la_data_out[44]
*218 la_data_out[45]
*219 la_data_out[46]
*220 la_data_out[47]
*221 la_data_out[48]
*222 la_data_out[49]
*223 la_data_out[4]
*224 la_data_out[50]
*225 la_data_out[51]
*226 la_data_out[52]
*227 la_data_out[53]
*228 la_data_out[54]
*229 la_data_out[55]
*230 la_data_out[56]
*231 la_data_out[57]
*232 la_data_out[58]
*233 la_data_out[59]
*234 la_data_out[5]
*235 la_data_out[60]
*236 la_data_out[61]
*237 la_data_out[62]
*238 la_data_out[63]
*239 la_data_out[6]
*240 la_data_out[7]
*241 la_data_out[8]
*242 la_data_out[9]
*243 la_oenb[0]
*244 la_oenb[10]
*245 la_oenb[11]
*246 la_oenb[12]
*247 la_oenb[13]
*248 la_oenb[14]
*249 la_oenb[15]
*250 la_oenb[16]
*251 la_oenb[17]
*252 la_oenb[18]
*253 la_oenb[19]
*254 la_oenb[1]
*255 la_oenb[20]
*256 la_oenb[21]
*257 la_oenb[22]
*258 la_oenb[23]
*259 la_oenb[24]
*260 la_oenb[25]
*261 la_oenb[26]
*262 la_oenb[27]
*263 la_oenb[28]
*264 la_oenb[29]
*265 la_oenb[2]
*266 la_oenb[30]
*267 la_oenb[31]
*268 la_oenb[32]
*269 la_oenb[33]
*270 la_oenb[34]
*271 la_oenb[35]
*272 la_oenb[36]
*273 la_oenb[37]
*274 la_oenb[38]
*275 la_oenb[39]
*276 la_oenb[3]
*277 la_oenb[40]
*278 la_oenb[41]
*279 la_oenb[42]
*280 la_oenb[43]
*281 la_oenb[44]
*282 la_oenb[45]
*283 la_oenb[46]
*284 la_oenb[47]
*285 la_oenb[48]
*286 la_oenb[49]
*287 la_oenb[4]
*288 la_oenb[50]
*289 la_oenb[51]
*290 la_oenb[52]
*291 la_oenb[53]
*292 la_oenb[54]
*293 la_oenb[55]
*294 la_oenb[56]
*295 la_oenb[57]
*296 la_oenb[58]
*297 la_oenb[59]
*298 la_oenb[5]
*299 la_oenb[60]
*300 la_oenb[61]
*301 la_oenb[62]
*302 la_oenb[63]
*303 la_oenb[6]
*304 la_oenb[7]
*305 la_oenb[8]
*306 la_oenb[9]
*307 user_clock2
*308 user_irq[0]
*309 user_irq[1]
*310 user_irq[2]
*313 wb_clk_i
*314 wb_rst_i
*315 wbs_ack_o
*316 wbs_adr_i[0]
*317 wbs_adr_i[10]
*318 wbs_adr_i[11]
*319 wbs_adr_i[12]
*320 wbs_adr_i[13]
*321 wbs_adr_i[14]
*322 wbs_adr_i[15]
*323 wbs_adr_i[16]
*324 wbs_adr_i[17]
*325 wbs_adr_i[18]
*326 wbs_adr_i[19]
*327 wbs_adr_i[1]
*328 wbs_adr_i[20]
*329 wbs_adr_i[21]
*330 wbs_adr_i[22]
*331 wbs_adr_i[23]
*332 wbs_adr_i[24]
*333 wbs_adr_i[25]
*334 wbs_adr_i[26]
*335 wbs_adr_i[27]
*336 wbs_adr_i[28]
*337 wbs_adr_i[29]
*338 wbs_adr_i[2]
*339 wbs_adr_i[30]
*340 wbs_adr_i[31]
*341 wbs_adr_i[3]
*342 wbs_adr_i[4]
*343 wbs_adr_i[5]
*344 wbs_adr_i[6]
*345 wbs_adr_i[7]
*346 wbs_adr_i[8]
*347 wbs_adr_i[9]
*348 wbs_cyc_i
*349 wbs_dat_i[0]
*350 wbs_dat_i[10]
*351 wbs_dat_i[11]
*352 wbs_dat_i[12]
*353 wbs_dat_i[13]
*354 wbs_dat_i[14]
*355 wbs_dat_i[15]
*356 wbs_dat_i[16]
*357 wbs_dat_i[17]
*358 wbs_dat_i[18]
*359 wbs_dat_i[19]
*360 wbs_dat_i[1]
*361 wbs_dat_i[20]
*362 wbs_dat_i[21]
*363 wbs_dat_i[22]
*364 wbs_dat_i[23]
*365 wbs_dat_i[24]
*366 wbs_dat_i[25]
*367 wbs_dat_i[26]
*368 wbs_dat_i[27]
*369 wbs_dat_i[28]
*370 wbs_dat_i[29]
*371 wbs_dat_i[2]
*372 wbs_dat_i[30]
*373 wbs_dat_i[31]
*374 wbs_dat_i[3]
*375 wbs_dat_i[4]
*376 wbs_dat_i[5]
*377 wbs_dat_i[6]
*378 wbs_dat_i[7]
*379 wbs_dat_i[8]
*380 wbs_dat_i[9]
*381 wbs_dat_o[0]
*382 wbs_dat_o[10]
*383 wbs_dat_o[11]
*384 wbs_dat_o[12]
*385 wbs_dat_o[13]
*386 wbs_dat_o[14]
*387 wbs_dat_o[15]
*388 wbs_dat_o[16]
*389 wbs_dat_o[17]
*390 wbs_dat_o[18]
*391 wbs_dat_o[19]
*392 wbs_dat_o[1]
*393 wbs_dat_o[20]
*394 wbs_dat_o[21]
*395 wbs_dat_o[22]
*396 wbs_dat_o[23]
*397 wbs_dat_o[24]
*398 wbs_dat_o[25]
*399 wbs_dat_o[26]
*400 wbs_dat_o[27]
*401 wbs_dat_o[28]
*402 wbs_dat_o[29]
*403 wbs_dat_o[2]
*404 wbs_dat_o[30]
*405 wbs_dat_o[31]
*406 wbs_dat_o[3]
*407 wbs_dat_o[4]
*408 wbs_dat_o[5]
*409 wbs_dat_o[6]
*410 wbs_dat_o[7]
*411 wbs_dat_o[8]
*412 wbs_dat_o[9]
*413 wbs_sel_i[0]
*414 wbs_sel_i[1]
*415 wbs_sel_i[2]
*416 wbs_sel_i[3]
*417 wbs_stb_i
*418 wbs_we_i
*419 mprj

*PORTS
io_in[0] I
io_in[10] I
io_in[11] I
io_in[12] I
io_in[13] I
io_in[14] I
io_in[15] I
io_in[16] I
io_in[17] I
io_in[18] I
io_in[19] I
io_in[1] I
io_in[20] I
io_in[21] I
io_in[22] I
io_in[23] I
io_in[24] I
io_in[25] I
io_in[26] I
io_in[27] I
io_in[28] I
io_in[29] I
io_in[2] I
io_in[30] I
io_in[31] I
io_in[32] I
io_in[33] I
io_in[34] I
io_in[35] I
io_in[36] I
io_in[37] I
io_in[3] I
io_in[4] I
io_in[5] I
io_in[6] I
io_in[7] I
io_in[8] I
io_in[9] I
io_oeb[0] O
io_oeb[10] O
io_oeb[11] O
io_oeb[12] O
io_oeb[13] O
io_oeb[14] O
io_oeb[15] O
io_oeb[16] O
io_oeb[17] O
io_oeb[18] O
io_oeb[19] O
io_oeb[1] O
io_oeb[20] O
io_oeb[21] O
io_oeb[22] O
io_oeb[23] O
io_oeb[24] O
io_oeb[25] O
io_oeb[26] O
io_oeb[27] O
io_oeb[28] O
io_oeb[29] O
io_oeb[2] O
io_oeb[30] O
io_oeb[31] O
io_oeb[32] O
io_oeb[33] O
io_oeb[34] O
io_oeb[35] O
io_oeb[36] O
io_oeb[37] O
io_oeb[3] O
io_oeb[4] O
io_oeb[5] O
io_oeb[6] O
io_oeb[7] O
io_oeb[8] O
io_oeb[9] O
io_out[0] O
io_out[10] O
io_out[11] O
io_out[12] O
io_out[13] O
io_out[14] O
io_out[15] O
io_out[16] O
io_out[17] O
io_out[18] O
io_out[19] O
io_out[1] O
io_out[20] O
io_out[21] O
io_out[22] O
io_out[23] O
io_out[24] O
io_out[25] O
io_out[26] O
io_out[27] O
io_out[28] O
io_out[29] O
io_out[2] O
io_out[30] O
io_out[31] O
io_out[32] O
io_out[33] O
io_out[34] O
io_out[35] O
io_out[36] O
io_out[37] O
io_out[3] O
io_out[4] O
io_out[5] O
io_out[6] O
io_out[7] O
io_out[8] O
io_out[9] O
la_data_in[0] I
la_data_in[10] I
la_data_in[11] I
la_data_in[12] I
la_data_in[13] I
la_data_in[14] I
la_data_in[15] I
la_data_in[16] I
la_data_in[17] I
la_data_in[18] I
la_data_in[19] I
la_data_in[1] I
la_data_in[20] I
la_data_in[21] I
la_data_in[22] I
la_data_in[23] I
la_data_in[24] I
la_data_in[25] I
la_data_in[26] I
la_data_in[27] I
la_data_in[28] I
la_data_in[29] I
la_data_in[2] I
la_data_in[30] I
la_data_in[31] I
la_data_in[32] I
la_data_in[33] I
la_data_in[34] I
la_data_in[35] I
la_data_in[36] I
la_data_in[37] I
la_data_in[38] I
la_data_in[39] I
la_data_in[3] I
la_data_in[40] I
la_data_in[41] I
la_data_in[42] I
la_data_in[43] I
la_data_in[44] I
la_data_in[45] I
la_data_in[46] I
la_data_in[47] I
la_data_in[48] I
la_data_in[49] I
la_data_in[4] I
la_data_in[50] I
la_data_in[51] I
la_data_in[52] I
la_data_in[53] I
la_data_in[54] I
la_data_in[55] I
la_data_in[56] I
la_data_in[57] I
la_data_in[58] I
la_data_in[59] I
la_data_in[5] I
la_data_in[60] I
la_data_in[61] I
la_data_in[62] I
la_data_in[63] I
la_data_in[6] I
la_data_in[7] I
la_data_in[8] I
la_data_in[9] I
la_data_out[0] O
la_data_out[10] O
la_data_out[11] O
la_data_out[12] O
la_data_out[13] O
la_data_out[14] O
la_data_out[15] O
la_data_out[16] O
la_data_out[17] O
la_data_out[18] O
la_data_out[19] O
la_data_out[1] O
la_data_out[20] O
la_data_out[21] O
la_data_out[22] O
la_data_out[23] O
la_data_out[24] O
la_data_out[25] O
la_data_out[26] O
la_data_out[27] O
la_data_out[28] O
la_data_out[29] O
la_data_out[2] O
la_data_out[30] O
la_data_out[31] O
la_data_out[32] O
la_data_out[33] O
la_data_out[34] O
la_data_out[35] O
la_data_out[36] O
la_data_out[37] O
la_data_out[38] O
la_data_out[39] O
la_data_out[3] O
la_data_out[40] O
la_data_out[41] O
la_data_out[42] O
la_data_out[43] O
la_data_out[44] O
la_data_out[45] O
la_data_out[46] O
la_data_out[47] O
la_data_out[48] O
la_data_out[49] O
la_data_out[4] O
la_data_out[50] O
la_data_out[51] O
la_data_out[52] O
la_data_out[53] O
la_data_out[54] O
la_data_out[55] O
la_data_out[56] O
la_data_out[57] O
la_data_out[58] O
la_data_out[59] O
la_data_out[5] O
la_data_out[60] O
la_data_out[61] O
la_data_out[62] O
la_data_out[63] O
la_data_out[6] O
la_data_out[7] O
la_data_out[8] O
la_data_out[9] O
la_oenb[0] I
la_oenb[10] I
la_oenb[11] I
la_oenb[12] I
la_oenb[13] I
la_oenb[14] I
la_oenb[15] I
la_oenb[16] I
la_oenb[17] I
la_oenb[18] I
la_oenb[19] I
la_oenb[1] I
la_oenb[20] I
la_oenb[21] I
la_oenb[22] I
la_oenb[23] I
la_oenb[24] I
la_oenb[25] I
la_oenb[26] I
la_oenb[27] I
la_oenb[28] I
la_oenb[29] I
la_oenb[2] I
la_oenb[30] I
la_oenb[31] I
la_oenb[32] I
la_oenb[33] I
la_oenb[34] I
la_oenb[35] I
la_oenb[36] I
la_oenb[37] I
la_oenb[38] I
la_oenb[39] I
la_oenb[3] I
la_oenb[40] I
la_oenb[41] I
la_oenb[42] I
la_oenb[43] I
la_oenb[44] I
la_oenb[45] I
la_oenb[46] I
la_oenb[47] I
la_oenb[48] I
la_oenb[49] I
la_oenb[4] I
la_oenb[50] I
la_oenb[51] I
la_oenb[52] I
la_oenb[53] I
la_oenb[54] I
la_oenb[55] I
la_oenb[56] I
la_oenb[57] I
la_oenb[58] I
la_oenb[59] I
la_oenb[5] I
la_oenb[60] I
la_oenb[61] I
la_oenb[62] I
la_oenb[63] I
la_oenb[6] I
la_oenb[7] I
la_oenb[8] I
la_oenb[9] I
user_clock2 I
user_irq[0] O
user_irq[1] O
user_irq[2] O
wb_clk_i I
wb_rst_i I
wbs_ack_o O
wbs_adr_i[0] I
wbs_adr_i[10] I
wbs_adr_i[11] I
wbs_adr_i[12] I
wbs_adr_i[13] I
wbs_adr_i[14] I
wbs_adr_i[15] I
wbs_adr_i[16] I
wbs_adr_i[17] I
wbs_adr_i[18] I
wbs_adr_i[19] I
wbs_adr_i[1] I
wbs_adr_i[20] I
wbs_adr_i[21] I
wbs_adr_i[22] I
wbs_adr_i[23] I
wbs_adr_i[24] I
wbs_adr_i[25] I
wbs_adr_i[26] I
wbs_adr_i[27] I
wbs_adr_i[28] I
wbs_adr_i[29] I
wbs_adr_i[2] I
wbs_adr_i[30] I
wbs_adr_i[31] I
wbs_adr_i[3] I
wbs_adr_i[4] I
wbs_adr_i[5] I
wbs_adr_i[6] I
wbs_adr_i[7] I
wbs_adr_i[8] I
wbs_adr_i[9] I
wbs_cyc_i I
wbs_dat_i[0] I
wbs_dat_i[10] I
wbs_dat_i[11] I
wbs_dat_i[12] I
wbs_dat_i[13] I
wbs_dat_i[14] I
wbs_dat_i[15] I
wbs_dat_i[16] I
wbs_dat_i[17] I
wbs_dat_i[18] I
wbs_dat_i[19] I
wbs_dat_i[1] I
wbs_dat_i[20] I
wbs_dat_i[21] I
wbs_dat_i[22] I
wbs_dat_i[23] I
wbs_dat_i[24] I
wbs_dat_i[25] I
wbs_dat_i[26] I
wbs_dat_i[27] I
wbs_dat_i[28] I
wbs_dat_i[29] I
wbs_dat_i[2] I
wbs_dat_i[30] I
wbs_dat_i[31] I
wbs_dat_i[3] I
wbs_dat_i[4] I
wbs_dat_i[5] I
wbs_dat_i[6] I
wbs_dat_i[7] I
wbs_dat_i[8] I
wbs_dat_i[9] I
wbs_dat_o[0] O
wbs_dat_o[10] O
wbs_dat_o[11] O
wbs_dat_o[12] O
wbs_dat_o[13] O
wbs_dat_o[14] O
wbs_dat_o[15] O
wbs_dat_o[16] O
wbs_dat_o[17] O
wbs_dat_o[18] O
wbs_dat_o[19] O
wbs_dat_o[1] O
wbs_dat_o[20] O
wbs_dat_o[21] O
wbs_dat_o[22] O
wbs_dat_o[23] O
wbs_dat_o[24] O
wbs_dat_o[25] O
wbs_dat_o[26] O
wbs_dat_o[27] O
wbs_dat_o[28] O
wbs_dat_o[29] O
wbs_dat_o[2] O
wbs_dat_o[30] O
wbs_dat_o[31] O
wbs_dat_o[3] O
wbs_dat_o[4] O
wbs_dat_o[5] O
wbs_dat_o[6] O
wbs_dat_o[7] O
wbs_dat_o[8] O
wbs_dat_o[9] O
wbs_sel_i[0] I
wbs_sel_i[1] I
wbs_sel_i[2] I
wbs_sel_i[3] I
wbs_stb_i I
wbs_we_i I

*D_NET *1 0.741175
*CONN
*P io_in[0] I
*I *419:io_in[0] I *D user_proj_example
*CAP
1 io_in[0] 0.000498334
2 *419:io_in[0] 0.00196626
3 *1:11 0.0470061
4 *1:10 0.0450399
5 *1:8 0.056395
6 *1:7 0.0568934
7 *1:8 *12:8 0.297353
8 *1:11 *24:11 0.103268
9 *1:11 *32:19 0.128359
10 *1:11 *63:8 0.0043955
*RES
1 io_in[0] *1:7 7.256 
2 *1:7 *1:8 851.864 
3 *1:8 *1:10 4.5 
4 *1:10 *1:11 671.944 
5 *1:11 *419:io_in[0] 18.696 
*END

*D_NET *2 0.219574
*CONN
*P io_in[10] I
*I *419:io_in[10] I *D user_proj_example
*CAP
1 io_in[10] 0.0406815
2 *419:io_in[10] 0.0003575
3 *2:11 0.00509906
4 *2:10 0.00474156
5 *2:8 0.0100054
6 *2:7 0.0100054
7 *2:5 0.0406815
8 *2:8 *29:16 0.00236647
9 *2:8 *106:11 0
10 *2:11 *419:io_in[36] 0.0019365
11 *2:11 *12:11 0.000114825
12 *2:11 *12:21 0.00203999
13 *2:11 *12:23 1.76653e-05
14 *2:11 *21:19 0.0625033
15 *2:11 *28:11 0.0239654
16 *2:11 *33:15 0.015058
*RES
1 io_in[10] *2:5 341.38 
2 *2:5 *2:7 4.5 
3 *2:7 *2:8 93.08 
4 *2:8 *2:10 4.5 
5 *2:10 *2:11 245.96 
6 *2:11 *419:io_in[10] 15.476 
*END

*D_NET *3 0.259095
*CONN
*P io_in[11] I
*I *419:io_in[11] I *D user_proj_example
*CAP
1 io_in[11] 0.000566095
2 *419:io_in[11] 0.000393801
3 *3:19 0.00364907
4 *3:18 0.00653934
5 *3:13 0.0427935
6 *3:11 0.0400755
7 *419:io_in[11] *41:9 0
8 *3:18 *30:16 0
9 *3:19 *419:io_in[37] 0.00328601
10 *3:19 *25:19 0.00534651
11 *3:19 *58:8 0.0560801
12 *3:19 *79:8 0.0946252
13 *3:19 *113:8 0.00574011
*RES
1 io_in[11] *3:11 3.068 
2 *3:11 *3:13 332.072 
3 *3:13 *3:18 35.104 
4 *3:18 *3:19 246.584 
5 *3:19 *419:io_in[11] 7.048 
*END

*D_NET *4 0.151612
*CONN
*P io_in[12] I
*I *419:io_in[12] I *D user_proj_example
*CAP
1 io_in[12] 0.000433794
2 *419:io_in[12] 0.00175461
3 *4:16 0.00760384
4 *4:13 0.0729014
5 *4:11 0.0674859
6 *419:io_in[12] *40:8 0.0014325
7 *419:io_in[12] *70:8 0
8 *4:13 *46:10 0
9 *4:13 *87:14 0
10 *4:16 *42:10 0
*RES
1 io_in[12] *4:11 2.444 
2 *4:11 *4:13 566.072 
3 *4:13 *4:16 47.244 
4 *4:16 *419:io_in[12] 21.636 
*END

*D_NET *5 0.212374
*CONN
*P io_in[13] I
*I *419:io_in[13] I *D user_proj_example
*CAP
1 io_in[13] 0.000453178
2 *419:io_in[13] 0.00553652
3 *5:11 0.0639294
4 *5:10 0.0583929
5 *5:8 0.00627336
6 *5:7 0.00672653
7 *419:io_in[13] *42:13 0
8 *5:8 *6:8 0.0278881
9 *5:8 *44:17 0.0020311
10 *5:11 *42:10 9.12256e-05
11 *5:11 *57:10 0
12 *5:11 *81:14 0.0360284
13 *5:11 *103:14 0.00502356
14 *5:11 *108:14 0
*RES
1 io_in[13] *5:7 6.84 
2 *5:7 *5:8 93.288 
3 *5:8 *5:10 4.5 
4 *5:10 *5:11 559 
5 *5:11 *419:io_in[13] 39.08 
*END

*D_NET *6 0.241489
*CONN
*P io_in[14] I
*I *419:io_in[14] I *D user_proj_example
*CAP
1 io_in[14] 0.000475756
2 *419:io_in[14] 0.00274467
3 *6:16 0.00813283
4 *6:11 0.0705248
5 *6:10 0.0651367
6 *6:8 0.00451942
7 *6:7 0.00499518
8 *419:io_in[14] *44:11 0
9 *6:8 *44:17 0.0568648
10 *6:16 *67:14 0.000206645
11 *6:16 *80:11 0
12 *5:8 *6:8 0.0278881
*RES
1 io_in[14] *6:7 7.048 
2 *6:7 *6:8 145.704 
3 *6:8 *6:10 4.5 
4 *6:10 *6:11 552.344 
5 *6:11 *6:16 44.748 
6 *6:16 *419:io_in[14] 18.564 
*END

*D_NET *7 0.341817
*CONN
*P io_in[15] I
*I *419:io_in[15] I *D user_proj_example
*CAP
1 io_in[15] 0.00034989
2 *419:io_in[15] 0.00280873
3 *7:11 0.0326362
4 *7:10 0.0298275
5 *7:8 0.0419605
6 *7:7 0.0423104
7 *7:8 *15:8 0.000457737
8 *7:8 *16:8 0.0269056
9 *7:8 *45:14 0.16456
*RES
1 io_in[15] *7:7 7.048 
2 *7:7 *7:8 524.472 
3 *7:8 *7:10 4.5 
4 *7:10 *7:11 243.776 
5 *7:11 *419:io_in[15] 19.292 
*END

*D_NET *8 0.210101
*CONN
*P io_in[16] I
*I *419:io_in[16] I *D user_proj_example
*CAP
1 io_in[16] 0.000270449
2 *419:io_in[16] 0.00142921
3 *8:11 0.0328609
4 *8:10 0.0314317
5 *8:8 0.0290806
6 *8:7 0.0293511
7 *419:io_in[16] *20:13 0.00118897
8 *419:io_in[16] *46:7 0
9 *419:io_in[16] *89:8 0.000460266
10 *8:8 *14:16 0.0154674
11 *8:8 *15:8 0.0194411
12 *8:8 *45:14 0.0491194
13 *8:11 *46:7 0
*RES
1 io_in[16] *8:7 6.424 
2 *8:7 *8:8 386.984 
3 *8:8 *8:10 4.5 
4 *8:10 *8:11 253.864 
5 *8:11 *419:io_in[16] 19.764 
*END

*D_NET *9 0.126887
*CONN
*P io_in[17] I
*I *419:io_in[17] I *D user_proj_example
*CAP
1 io_in[17] 0.00402196
2 *419:io_in[17] 0.00010297
3 *9:19 0.0293882
4 *9:18 0.0292853
5 *9:16 0.0300331
6 *9:15 0.0340551
7 *9:19 *84:7 0
*RES
1 io_in[17] *9:15 37.416 
2 *9:15 *9:16 255.944 
3 *9:16 *9:18 4.5 
4 *9:18 *9:19 233.896 
5 *9:19 *419:io_in[17] 0.884 
*END

*D_NET *10 0.113347
*CONN
*P io_in[18] I
*I *419:io_in[18] I *D user_proj_example
*CAP
1 io_in[18] 0.000978712
2 *419:io_in[18] 0.00187758
3 *10:11 0.032431
4 *10:10 0.0305534
5 *10:8 0.010948
6 *10:7 0.0119267
7 *419:io_in[18] *40:8 0.00301702
8 *419:io_in[18] *70:8 0
9 *10:8 io_out[18] 0.00445619
10 *10:8 *13:8 0.00127729
11 *10:8 *85:16 0.0158222
12 *10:11 *419:io_in[19] 5.883e-05
13 *10:11 *49:11 0
*RES
1 io_in[18] *10:7 11.832 
2 *10:7 *10:8 118.04 
3 *10:8 *10:10 4.5 
4 *10:10 *10:11 247.208 
5 *10:11 *419:io_in[18] 25.38 
*END

*D_NET *11 0.0712133
*CONN
*P io_in[19] I
*I *419:io_in[19] I *D user_proj_example
*CAP
1 io_in[19] 0.000324084
2 *419:io_in[19] 0.0024179
3 *11:13 0.0334581
4 *11:11 0.0313643
5 *419:io_in[19] *24:11 0
6 *419:io_in[19] *37:19 0.00359006
7 *419:io_in[19] *49:11 0
8 *10:11 *419:io_in[19] 5.883e-05
*RES
1 io_in[19] *11:11 2.86 
2 *11:11 *11:13 251.368 
3 *11:13 *419:io_in[19] 29.956 
*END

*D_NET *12 0.727236
*CONN
*P io_in[1] I
*I *419:io_in[1] I *D user_proj_example
*CAP
1 io_in[1] 0.000475756
2 *419:io_in[1] 0.000164665
3 *12:23 0.00185528
4 *12:21 0.00236432
5 *12:11 0.036362
6 *12:10 0.0356883
7 *12:8 0.0457027
8 *12:7 0.0461784
9 *419:io_in[1] *419:io_in[2] 0.001829
10 *419:io_in[1] *28:11 0.000725098
11 *12:11 *419:io_in[36] 0.00966985
12 *12:11 *33:15 0.000660502
13 *12:11 *73:9 0
14 *12:11 *75:11 0.032964
15 *12:21 *34:11 6.89383e-05
16 *12:21 *75:5 0.00275903
17 *12:21 *75:11 4.955e-05
18 *12:23 *419:io_in[2] 0.000711418
19 *12:23 *28:11 0.112503
20 *12:23 *34:11 0.00494003
21 *12:23 *75:5 0.0890407
22 *12:23 *98:5 0.00299862
23 *1:8 *12:8 0.297353
24 *2:11 *12:11 0.000114825
25 *2:11 *12:21 0.00203999
26 *2:11 *12:23 1.76653e-05
*RES
1 io_in[1] *12:7 7.048 
2 *12:7 *12:8 762.008 
3 *12:8 *12:10 4.5 
4 *12:10 *12:11 356.824 
5 *12:11 *12:21 19.344 
6 *12:21 *12:23 284.024 
7 *12:23 *419:io_in[1] 9.596 
*END

*D_NET *13 0.102145
*CONN
*P io_in[20] I
*I *419:io_in[20] I *D user_proj_example
*CAP
1 io_in[20] 0.0010014
2 *419:io_in[20] 0.0019246
3 *13:11 0.032018
4 *13:10 0.0300934
5 *13:8 0.015445
6 *13:7 0.0164464
7 *419:io_in[20] *40:8 0.00269885
8 *419:io_in[20] *51:9 0
9 *419:io_in[20] *70:8 0
10 *13:11 *49:11 0.0012399
11 *13:11 *87:13 0
12 *10:8 *13:8 0.00127729
*RES
1 io_in[20] *13:7 12.04 
2 *13:7 *13:8 131.976 
3 *13:8 *13:10 4.5 
4 *13:10 *13:11 247 
5 *13:11 *419:io_in[20] 24.756 
*END

*D_NET *14 0.158735
*CONN
*P io_in[21] I
*I *419:io_in[21] I *D user_proj_example
*CAP
1 io_in[21] 0.000453193
2 *419:io_in[21] 0.000175654
3 *14:19 0.0328126
4 *14:18 0.0326369
5 *14:16 0.0215458
6 *14:15 0.021999
7 *14:16 *15:8 0.0336446
8 *14:19 *89:7 0
9 *8:8 *14:16 0.0154674
*RES
1 io_in[21] *14:15 8.296 
2 *14:15 *14:16 268.424 
3 *14:16 *14:18 4.5 
4 *14:18 *14:19 261.56 
5 *14:19 *419:io_in[21] 1.508 
*END

*D_NET *15 0.24509
*CONN
*P io_in[22] I
*I *419:io_in[22] I *D user_proj_example
*CAP
1 io_in[22] 0.000294677
2 *419:io_in[22] 0.00127462
3 *15:11 0.029018
4 *15:10 0.0277434
5 *15:8 0.0283835
6 *15:7 0.0286781
7 *419:io_in[22] *20:13 0.000958681
8 *419:io_in[22] *92:8 0.000217678
9 *15:8 *16:8 0.0295235
10 *15:8 *45:14 0.0234732
11 *15:11 *53:7 0.0219809
12 *15:11 *82:17 0
13 *7:8 *15:8 0.000457737
14 *8:8 *15:8 0.0194411
15 *14:16 *15:8 0.0336446
*RES
1 io_in[22] *15:7 6.632 
2 *15:7 *15:8 406.12 
3 *15:8 *15:10 4.5 
4 *15:10 *15:11 253.656 
5 *15:11 *419:io_in[22] 19.14 
*END

*D_NET *16 0.245539
*CONN
*P io_in[23] I
*I *419:io_in[23] I *D user_proj_example
*CAP
1 io_in[23] 0.000377981
2 *419:io_in[23] 0.0025771
3 *16:11 0.032341
4 *16:10 0.0297639
5 *16:8 0.0618361
6 *16:7 0.0622141
7 *7:8 *16:8 0.0269056
8 *15:8 *16:8 0.0295235
*RES
1 io_in[23] *16:7 7.256 
2 *16:7 *16:8 535.496 
3 *16:8 *16:10 4.5 
4 *16:10 *16:11 243.568 
5 *16:11 *419:io_in[23] 17.316 
*END

*D_NET *17 0.227887
*CONN
*P io_in[24] I
*I *419:io_in[24] I *D user_proj_example
*CAP
1 io_in[24] 0.0696426
2 *419:io_in[24] 0.00624269
3 *17:11 0.0115686
4 *17:10 0.00532588
5 *17:8 0.0249809
6 *17:7 0.0249809
7 *17:5 0.0696426
8 *419:io_in[24] *67:14 0.000206645
9 *419:io_in[24] *81:17 0.000139808
10 *419:io_in[24] *92:7 0
11 *17:8 *47:7 0
12 *17:8 *85:9 0
13 *17:11 *66:14 0
14 *17:11 *82:14 0.0151565
*RES
1 io_in[24] *17:5 590.564 
2 *17:5 *17:7 4.5 
3 *17:7 *17:8 207.48 
4 *17:8 *17:10 4.5 
5 *17:10 *17:11 55.016 
6 *17:11 *419:io_in[24] 47.92 
*END

*D_NET *18 0.198501
*CONN
*P io_in[25] I
*I *419:io_in[25] I *D user_proj_example
*CAP
1 io_in[25] 0.000477894
2 *419:io_in[25] 0.00274203
3 *18:16 0.0213402
4 *18:15 0.0185982
5 *18:13 0.0774324
6 *18:11 0.0779103
7 *419:io_in[25] *93:7 0
*RES
1 io_in[25] *18:11 2.652 
2 *18:11 *18:13 654.68 
3 *18:13 *18:15 4.5 
4 *18:15 *18:16 149.968 
5 *18:16 *419:io_in[25] 19.292 
*END

*D_NET *19 0.181335
*CONN
*P io_in[26] I
*I *419:io_in[26] I *D user_proj_example
*CAP
1 io_in[26] 0.000206038
2 *419:io_in[26] 0.000175654
3 *19:16 0.011912
4 *19:15 0.0117364
5 *19:13 0.0785496
6 *19:11 0.0787556
*RES
1 io_in[26] *19:11 1.404 
2 *19:11 *19:13 664.04 
3 *19:13 *19:15 4.5 
4 *19:15 *19:16 88.92 
5 *19:16 *419:io_in[26] 1.508 
*END

*D_NET *20 0.266797
*CONN
*P io_in[27] I
*I *419:io_in[27] I *D user_proj_example
*CAP
1 io_in[27] 0.000626733
2 *419:io_in[27] 0.00110003
3 *20:13 0.0676467
4 *20:11 0.0671734
5 *20:13 *50:8 0.0835751
6 *20:13 *54:8 0.000744891
7 *20:13 *55:8 0
8 *20:13 *72:13 0.00338812
9 *20:13 *80:10 0.00269005
10 *20:13 *84:8 0.00116801
11 *20:13 *89:8 0.0143159
12 *20:13 *92:8 0.0222204
13 *20:13 *93:8 0
14 *419:io_in[16] *20:13 0.00118897
15 *419:io_in[22] *20:13 0.000958681
*RES
1 io_in[27] *20:11 3.276 
2 *20:11 *20:13 674.232 
3 *20:13 *419:io_in[27] 12.248 
*END

*D_NET *21 0.313003
*CONN
*P io_in[28] I
*I *419:io_in[28] I *D user_proj_example
*CAP
1 io_in[28] 0.000343806
2 *419:io_in[28] 0.000401744
3 *21:19 0.00376312
4 *21:18 0.00336137
5 *21:16 0.00806586
6 *21:15 0.00806586
7 *21:13 0.0640733
8 *21:11 0.0644172
9 *21:16 *39:11 0
10 *21:16 *77:11 0
11 *21:19 *28:11 0.00760302
12 *21:19 *33:15 0.0831994
13 *21:19 *65:9 0.007205
14 *2:11 *21:19 0.0625033
*RES
1 io_in[28] *21:11 2.028 
2 *21:11 *21:13 431.496 
3 *21:13 *21:15 4.5 
4 *21:15 *21:16 67.912 
5 *21:16 *21:18 4.5 
6 *21:18 *21:19 251.576 
7 *21:19 *419:io_in[28] 15.684 
*END

*D_NET *22 0.282713
*CONN
*P io_in[29] I
*I *419:io_in[29] I *D user_proj_example
*CAP
1 io_in[29] 0.0508281
2 *419:io_in[29] 0.00213001
3 *22:11 0.0189609
4 *22:10 0.0168309
5 *22:8 0.0196711
6 *22:7 0.0196711
7 *22:5 0.0508281
8 *419:io_in[29] *60:13 0
9 *22:8 *23:16 0
10 *22:8 *77:11 0
11 *22:8 *89:11 0
12 *22:11 *63:8 0.103793
*RES
1 io_in[29] *22:5 428.324 
2 *22:5 *22:7 4.5 
3 *22:7 *22:8 163.176 
4 *22:8 *22:10 4.5 
5 *22:10 *22:11 263.432 
6 *22:11 *419:io_in[29] 19.32 
*END

*D_NET *23 0.477995
*CONN
*P io_in[2] I
*I *419:io_in[2] I *D user_proj_example
*CAP
1 io_in[2] 0.000433794
2 *419:io_in[2] 0.000503018
3 *23:16 0.0568322
4 *23:15 0.0563291
5 *23:13 0.0851558
6 *23:11 0.0855896
7 *419:io_in[2] *28:11 0.00228777
8 *419:io_in[2] *98:5 0.0115102
9 *23:16 *265:9 0.176813
10 *419:io_in[1] *419:io_in[2] 0.001829
11 *12:23 *419:io_in[2] 0.000711418
12 *22:8 *23:16 0
*RES
1 io_in[2] *23:11 2.444 
2 *23:11 *23:13 686.296 
3 *23:13 *23:15 4.5 
4 *23:15 *23:16 690.248 
5 *23:16 *419:io_in[2] 38.224 
*END

*D_NET *24 0.303994
*CONN
*P io_in[30] I
*I *419:io_in[30] I *D user_proj_example
*CAP
1 io_in[30] 0.00214733
2 *419:io_in[30] 0.00195141
3 *24:11 0.0669555
4 *24:10 0.0650041
5 *24:8 0.0287668
6 *24:7 0.0309141
7 *419:io_in[30] *62:13 0
8 *24:11 *63:8 0.0049864
9 *419:io_in[19] *24:11 0
10 *1:11 *24:11 0.103268
*RES
1 io_in[30] *24:7 17.864 
2 *24:7 *24:8 241.176 
3 *24:8 *24:10 4.5 
4 *24:10 *24:11 687.128 
5 *24:11 *419:io_in[30] 18.488 
*END

*D_NET *25 0.403229
*CONN
*P io_in[31] I
*I *419:io_in[31] I *D user_proj_example
*CAP
1 io_in[31] 0.000206038
2 *419:io_in[31] 0.000284078
3 *25:19 0.00291677
4 *25:18 0.0026327
5 *25:16 0.0333409
6 *25:15 0.0333409
7 *25:13 0.0515083
8 *25:11 0.0517144
9 *25:13 *351:14 0
10 *25:16 *137:11 0.0294624
11 *25:19 *58:8 0.100328
12 *25:19 *97:8 0.0154306
13 *25:19 *113:8 0.0767174
14 *3:19 *25:19 0.00534651
*RES
1 io_in[31] *25:11 1.404 
2 *25:11 *25:13 422.344 
3 *25:13 *25:15 4.5 
4 *25:15 *25:16 309.608 
5 *25:16 *25:18 4.5 
6 *25:18 *25:19 286.936 
7 *25:19 *419:io_in[31] 6.632 
*END

*D_NET *26 0.413595
*CONN
*P io_in[32] I
*I *419:io_in[32] I *D user_proj_example
*CAP
1 io_in[32] 0.000626733
2 *419:io_in[32] 0.00189917
3 *26:19 0.00947751
4 *26:18 0.00757834
5 *26:16 0.0491566
6 *26:15 0.0491566
7 *26:13 0.0504513
8 *26:11 0.051078
9 *26:13 *190:18 0
10 *26:16 *190:21 0
11 *26:19 *37:19 0.0824919
12 *26:19 *64:8 0.00633435
13 *26:19 *96:8 0.105345
*RES
1 io_in[32] *26:11 3.276 
2 *26:11 *26:13 412.776 
3 *26:13 *26:15 4.5 
4 *26:15 *26:16 400.088 
5 *26:16 *26:18 4.5 
6 *26:18 *26:19 305.24 
7 *26:19 *419:io_in[32] 15.992 
*END

*D_NET *27 0.456629
*CONN
*P io_in[33] I
*I *419:io_in[33] I *D user_proj_example
*CAP
1 io_in[33] 0.000343806
2 *419:io_in[33] 0.00286657
3 *27:19 0.00709285
4 *27:18 0.00422628
5 *27:16 0.0595646
6 *27:15 0.0595646
7 *27:13 0.0495399
8 *27:11 0.0498837
9 *27:13 *370:8 0
10 *27:16 *148:19 0
11 *27:16 *243:13 0
12 *27:19 *60:14 0.112596
13 *27:19 *68:10 0.0113676
14 *27:19 *71:14 0.099583
*RES
1 io_in[33] *27:11 2.028 
2 *27:11 *27:13 406.536 
3 *27:13 *27:15 4.5 
4 *27:15 *27:16 487.24 
5 *27:16 *27:18 4.5 
6 *27:18 *27:19 320.008 
7 *27:19 *419:io_in[33] 25.56 
*END

*D_NET *28 0.392675
*CONN
*P io_in[34] I
*I *419:io_in[34] I *D user_proj_example
*CAP
1 io_in[34] 0.000993994
2 *419:io_in[34] 0.000200933
3 *28:11 0.0550129
4 *28:10 0.054812
5 *28:8 0.0645511
6 *28:7 0.0655451
7 *28:11 *65:9 0.00165743
8 *28:11 *98:5 0.00281738
9 *419:io_in[1] *28:11 0.000725098
10 *419:io_in[2] *28:11 0.00228777
11 *2:11 *28:11 0.0239654
12 *12:23 *28:11 0.112503
13 *21:19 *28:11 0.00760302
*RES
1 io_in[34] *28:7 11.624 
2 *28:7 *28:8 542.568 
3 *28:8 *28:10 4.5 
4 *28:10 *28:11 728.312 
5 *28:11 *419:io_in[34] 14.436 
*END

*D_NET *29 0.467907
*CONN
*P io_in[35] I
*I *419:io_in[35] I *D user_proj_example
*CAP
1 io_in[35] 0.000477894
2 *419:io_in[35] 0.00135232
3 *29:16 0.0524777
4 *29:15 0.0511254
5 *29:13 0.0954532
6 *29:11 0.0959311
7 *419:io_in[35] *67:13 0
8 *419:io_in[35] *106:10 0.00467906
9 *419:io_in[35] *113:8 0.0103252
10 *29:13 *201:16 0
11 *29:16 *143:5 0.153719
12 *2:8 *29:16 0.00236647
*RES
1 io_in[35] *29:11 2.652 
2 *29:11 *29:13 770.328 
3 *29:13 *29:15 4.5 
4 *29:15 *29:16 627.432 
5 *29:16 *419:io_in[35] 37.028 
*END

*D_NET *30 0.377977
*CONN
*P io_in[36] I
*I *419:io_in[36] I *D user_proj_example
*CAP
1 io_in[36] 0.000206038
2 *419:io_in[36] 0.000796336
3 *30:16 0.0852513
4 *30:15 0.084455
5 *30:13 0.0965476
6 *30:11 0.0967536
7 *419:io_in[36] *33:15 0.000458902
8 *419:io_in[36] *34:11 0.000950834
9 *419:io_in[36] *36:19 0.000950834
10 *2:11 *419:io_in[36] 0.0019365
11 *3:18 *30:16 0
12 *12:11 *419:io_in[36] 0.00966985
*RES
1 io_in[36] *30:11 1.404 
2 *30:11 *30:13 779.48 
3 *30:13 *30:15 4.5 
4 *30:15 *30:16 702.104 
5 *30:16 *419:io_in[36] 45.768 
*END

*D_NET *31 0.541918
*CONN
*P io_in[37] I
*I *419:io_in[37] I *D user_proj_example
*CAP
1 io_in[37] 0.000626733
2 *419:io_in[37] 0.000738132
3 *31:16 0.0675213
4 *31:15 0.0667832
5 *31:13 0.0973306
6 *31:11 0.0979574
7 *419:io_in[37] *79:8 0.000485727
8 *419:io_in[37] *113:8 0.0095902
9 *31:13 *39:14 0
10 *31:16 *272:13 0.197599
11 *3:19 *419:io_in[37] 0.00328601
*RES
1 io_in[37] *31:11 3.276 
2 *31:11 *31:13 785.928 
3 *31:13 *31:15 4.5 
4 *31:15 *31:16 786.968 
5 *31:16 *419:io_in[37] 35.572 
*END

*D_NET *32 0.474703
*CONN
*P io_in[3] I
*I *419:io_in[3] I *D user_proj_example
*CAP
1 io_in[3] 0.000298674
2 *419:io_in[3] 0.00203135
3 *32:19 0.00857171
4 *32:18 0.00654036
5 *32:16 0.0762945
6 *32:15 0.0762945
7 *32:13 0.0392505
8 *32:11 0.0395492
9 *32:16 *145:9 0
10 *32:16 *208:17 0