*SPEF "ieee 1481-1999"
*DESIGN "user_project_wrapper"
*DATE "11:11:11 Fri 11 11, 1111"
*VENDOR "OpenRCX"
*PROGRAM "Parallel Extraction"
*VERSION "1.0"
*DESIGN_FLOW "NAME_SCOPE LOCAL" "PIN_CAP NONE"
*DIVIDER /
*DELIMITER :
*BUS_DELIMITER []
*T_UNIT 1 NS
*C_UNIT 1 PF
*R_UNIT 1 OHM
*L_UNIT 1 HENRY

*NAME_MAP
*1 io_in[0]
*2 io_in[10]
*3 io_in[11]
*4 io_in[12]
*5 io_in[13]
*6 io_in[14]
*7 io_in[15]
*8 io_in[16]
*9 io_in[17]
*10 io_in[18]
*11 io_in[19]
*12 io_in[1]
*13 io_in[20]
*14 io_in[21]
*15 io_in[22]
*16 io_in[23]
*17 io_in[24]
*18 io_in[25]
*19 io_in[26]
*20 io_in[27]
*21 io_in[28]
*22 io_in[29]
*23 io_in[2]
*24 io_in[30]
*25 io_in[31]
*26 io_in[32]
*27 io_in[33]
*28 io_in[34]
*29 io_in[35]
*30 io_in[36]
*31 io_in[37]
*32 io_in[3]
*33 io_in[4]
*34 io_in[5]
*35 io_in[6]
*36 io_in[7]
*37 io_in[8]
*38 io_in[9]
*39 io_oeb[0]
*40 io_oeb[10]
*41 io_oeb[11]
*42 io_oeb[12]
*43 io_oeb[13]
*44 io_oeb[14]
*45 io_oeb[15]
*46 io_oeb[16]
*47 io_oeb[17]
*48 io_oeb[18]
*49 io_oeb[19]
*50 io_oeb[1]
*51 io_oeb[20]
*52 io_oeb[21]
*53 io_oeb[22]
*54 io_oeb[23]
*55 io_oeb[24]
*56 io_oeb[25]
*57 io_oeb[26]
*58 io_oeb[27]
*59 io_oeb[28]
*60 io_oeb[29]
*61 io_oeb[2]
*62 io_oeb[30]
*63 io_oeb[31]
*64 io_oeb[32]
*65 io_oeb[33]
*66 io_oeb[34]
*67 io_oeb[35]
*68 io_oeb[36]
*69 io_oeb[37]
*70 io_oeb[3]
*71 io_oeb[4]
*72 io_oeb[5]
*73 io_oeb[6]
*74 io_oeb[7]
*75 io_oeb[8]
*76 io_oeb[9]
*77 io_out[0]
*78 io_out[10]
*79 io_out[11]
*80 io_out[12]
*81 io_out[13]
*82 io_out[14]
*83 io_out[15]
*84 io_out[16]
*85 io_out[17]
*86 io_out[18]
*87 io_out[19]
*88 io_out[1]
*89 io_out[20]
*90 io_out[21]
*91 io_out[22]
*92 io_out[23]
*93 io_out[24]
*94 io_out[25]
*95 io_out[26]
*96 io_out[27]
*97 io_out[28]
*98 io_out[29]
*99 io_out[2]
*100 io_out[30]
*101 io_out[31]
*102 io_out[32]
*103 io_out[33]
*104 io_out[34]
*105 io_out[35]
*106 io_out[36]
*107 io_out[37]
*108 io_out[3]
*109 io_out[4]
*110 io_out[5]
*111 io_out[6]
*112 io_out[7]
*113 io_out[8]
*114 io_out[9]
*115 la_data_in[0]
*116 la_data_in[10]
*117 la_data_in[11]
*118 la_data_in[12]
*119 la_data_in[13]
*120 la_data_in[14]
*121 la_data_in[15]
*122 la_data_in[16]
*123 la_data_in[17]
*124 la_data_in[18]
*125 la_data_in[19]
*126 la_data_in[1]
*127 la_data_in[20]
*128 la_data_in[21]
*129 la_data_in[22]
*130 la_data_in[23]
*131 la_data_in[24]
*132 la_data_in[25]
*133 la_data_in[26]
*134 la_data_in[27]
*135 la_data_in[28]
*136 la_data_in[29]
*137 la_data_in[2]
*138 la_data_in[30]
*139 la_data_in[31]
*140 la_data_in[32]
*141 la_data_in[33]
*142 la_data_in[34]
*143 la_data_in[35]
*144 la_data_in[36]
*145 la_data_in[37]
*146 la_data_in[38]
*147 la_data_in[39]
*148 la_data_in[3]
*149 la_data_in[40]
*150 la_data_in[41]
*151 la_data_in[42]
*152 la_data_in[43]
*153 la_data_in[44]
*154 la_data_in[45]
*155 la_data_in[46]
*156 la_data_in[47]
*157 la_data_in[48]
*158 la_data_in[49]
*159 la_data_in[4]
*160 la_data_in[50]
*161 la_data_in[51]
*162 la_data_in[52]
*163 la_data_in[53]
*164 la_data_in[54]
*165 la_data_in[55]
*166 la_data_in[56]
*167 la_data_in[57]
*168 la_data_in[58]
*169 la_data_in[59]
*170 la_data_in[5]
*171 la_data_in[60]
*172 la_data_in[61]
*173 la_data_in[62]
*174 la_data_in[63]
*175 la_data_in[6]
*176 la_data_in[7]
*177 la_data_in[8]
*178 la_data_in[9]
*179 la_data_out[0]
*180 la_data_out[10]
*181 la_data_out[11]
*182 la_data_out[12]
*183 la_data_out[13]
*184 la_data_out[14]
*185 la_data_out[15]
*186 la_data_out[16]
*187 la_data_out[17]
*188 la_data_out[18]
*189 la_data_out[19]
*190 la_data_out[1]
*191 la_data_out[20]
*192 la_data_out[21]
*193 la_data_out[22]
*194 la_data_out[23]
*195 la_data_out[24]
*196 la_data_out[25]
*197 la_data_out[26]
*198 la_data_out[27]
*199 la_data_out[28]
*200 la_data_out[29]
*201 la_data_out[2]
*202 la_data_out[30]
*203 la_data_out[31]
*204 la_data_out[32]
*205 la_data_out[33]
*206 la_data_out[34]
*207 la_data_out[35]
*208 la_data_out[36]
*209 la_data_out[37]
*210 la_data_out[38]
*211 la_data_out[39]
*212 la_data_out[3]
*213 la_data_out[40]
*214 la_data_out[41]
*215 la_data_out[42]
*216 la_data_out[43]
*217 la_data_out[44]
*218 la_data_out[45]
*219 la_data_out[46]
*220 la_data_out[47]
*221 la_data_out[48]
*222 la_data_out[49]
*223 la_data_out[4]
*224 la_data_out[50]
*225 la_data_out[51]
*226 la_data_out[52]
*227 la_data_out[53]
*228 la_data_out[54]
*229 la_data_out[55]
*230 la_data_out[56]
*231 la_data_out[57]
*232 la_data_out[58]
*233 la_data_out[59]
*234 la_data_out[5]
*235 la_data_out[60]
*236 la_data_out[61]
*237 la_data_out[62]
*238 la_data_out[63]
*239 la_data_out[6]
*240 la_data_out[7]
*241 la_data_out[8]
*242 la_data_out[9]
*243 la_oenb[0]
*244 la_oenb[10]
*245 la_oenb[11]
*246 la_oenb[12]
*247 la_oenb[13]
*248 la_oenb[14]
*249 la_oenb[15]
*250 la_oenb[16]
*251 la_oenb[17]
*252 la_oenb[18]
*253 la_oenb[19]
*254 la_oenb[1]
*255 la_oenb[20]
*256 la_oenb[21]
*257 la_oenb[22]
*258 la_oenb[23]
*259 la_oenb[24]
*260 la_oenb[25]
*261 la_oenb[26]
*262 la_oenb[27]
*263 la_oenb[28]
*264 la_oenb[29]
*265 la_oenb[2]
*266 la_oenb[30]
*267 la_oenb[31]
*268 la_oenb[32]
*269 la_oenb[33]
*270 la_oenb[34]
*271 la_oenb[35]
*272 la_oenb[36]
*273 la_oenb[37]
*274 la_oenb[38]
*275 la_oenb[39]
*276 la_oenb[3]
*277 la_oenb[40]
*278 la_oenb[41]
*279 la_oenb[42]
*280 la_oenb[43]
*281 la_oenb[44]
*282 la_oenb[45]
*283 la_oenb[46]
*284 la_oenb[47]
*285 la_oenb[48]
*286 la_oenb[49]
*287 la_oenb[4]
*288 la_oenb[50]
*289 la_oenb[51]
*290 la_oenb[52]
*291 la_oenb[53]
*292 la_oenb[54]
*293 la_oenb[55]
*294 la_oenb[56]
*295 la_oenb[57]
*296 la_oenb[58]
*297 la_oenb[59]
*298 la_oenb[5]
*299 la_oenb[60]
*300 la_oenb[61]
*301 la_oenb[62]
*302 la_oenb[63]
*303 la_oenb[6]
*304 la_oenb[7]
*305 la_oenb[8]
*306 la_oenb[9]
*307 user_clock2
*308 user_irq[0]
*309 user_irq[1]
*310 user_irq[2]
*313 wb_clk_i
*314 wb_rst_i
*315 wbs_ack_o
*316 wbs_adr_i[0]
*317 wbs_adr_i[10]
*318 wbs_adr_i[11]
*319 wbs_adr_i[12]
*320 wbs_adr_i[13]
*321 wbs_adr_i[14]
*322 wbs_adr_i[15]
*323 wbs_adr_i[16]
*324 wbs_adr_i[17]
*325 wbs_adr_i[18]
*326 wbs_adr_i[19]
*327 wbs_adr_i[1]
*328 wbs_adr_i[20]
*329 wbs_adr_i[21]
*330 wbs_adr_i[22]
*331 wbs_adr_i[23]
*332 wbs_adr_i[24]
*333 wbs_adr_i[25]
*334 wbs_adr_i[26]
*335 wbs_adr_i[27]
*336 wbs_adr_i[28]
*337 wbs_adr_i[29]
*338 wbs_adr_i[2]
*339 wbs_adr_i[30]
*340 wbs_adr_i[31]
*341 wbs_adr_i[3]
*342 wbs_adr_i[4]
*343 wbs_adr_i[5]
*344 wbs_adr_i[6]
*345 wbs_adr_i[7]
*346 wbs_adr_i[8]
*347 wbs_adr_i[9]
*348 wbs_cyc_i
*349 wbs_dat_i[0]
*350 wbs_dat_i[10]
*351 wbs_dat_i[11]
*352 wbs_dat_i[12]
*353 wbs_dat_i[13]
*354 wbs_dat_i[14]
*355 wbs_dat_i[15]
*356 wbs_dat_i[16]
*357 wbs_dat_i[17]
*358 wbs_dat_i[18]
*359 wbs_dat_i[19]
*360 wbs_dat_i[1]
*361 wbs_dat_i[20]
*362 wbs_dat_i[21]
*363 wbs_dat_i[22]
*364 wbs_dat_i[23]
*365 wbs_dat_i[24]
*366 wbs_dat_i[25]
*367 wbs_dat_i[26]
*368 wbs_dat_i[27]
*369 wbs_dat_i[28]
*370 wbs_dat_i[29]
*371 wbs_dat_i[2]
*372 wbs_dat_i[30]
*373 wbs_dat_i[31]
*374 wbs_dat_i[3]
*375 wbs_dat_i[4]
*376 wbs_dat_i[5]
*377 wbs_dat_i[6]
*378 wbs_dat_i[7]
*379 wbs_dat_i[8]
*380 wbs_dat_i[9]
*381 wbs_dat_o[0]
*382 wbs_dat_o[10]
*383 wbs_dat_o[11]
*384 wbs_dat_o[12]
*385 wbs_dat_o[13]
*386 wbs_dat_o[14]
*387 wbs_dat_o[15]
*388 wbs_dat_o[16]
*389 wbs_dat_o[17]
*390 wbs_dat_o[18]
*391 wbs_dat_o[19]
*392 wbs_dat_o[1]
*393 wbs_dat_o[20]
*394 wbs_dat_o[21]
*395 wbs_dat_o[22]
*396 wbs_dat_o[23]
*397 wbs_dat_o[24]
*398 wbs_dat_o[25]
*399 wbs_dat_o[26]
*400 wbs_dat_o[27]
*401 wbs_dat_o[28]
*402 wbs_dat_o[29]
*403 wbs_dat_o[2]
*404 wbs_dat_o[30]
*405 wbs_dat_o[31]
*406 wbs_dat_o[3]
*407 wbs_dat_o[4]
*408 wbs_dat_o[5]
*409 wbs_dat_o[6]
*410 wbs_dat_o[7]
*411 wbs_dat_o[8]
*412 wbs_dat_o[9]
*413 wbs_sel_i[0]
*414 wbs_sel_i[1]
*415 wbs_sel_i[2]
*416 wbs_sel_i[3]
*417 wbs_stb_i
*418 wbs_we_i
*419 mprj

*PORTS
io_in[0] I
io_in[10] I
io_in[11] I
io_in[12] I
io_in[13] I
io_in[14] I
io_in[15] I
io_in[16] I
io_in[17] I
io_in[18] I
io_in[19] I
io_in[1] I
io_in[20] I
io_in[21] I
io_in[22] I
io_in[23] I
io_in[24] I
io_in[25] I
io_in[26] I
io_in[27] I
io_in[28] I
io_in[29] I
io_in[2] I
io_in[30] I
io_in[31] I
io_in[32] I
io_in[33] I
io_in[34] I
io_in[35] I
io_in[36] I
io_in[37] I
io_in[3] I
io_in[4] I
io_in[5] I
io_in[6] I
io_in[7] I
io_in[8] I
io_in[9] I
io_oeb[0] O
io_oeb[10] O
io_oeb[11] O
io_oeb[12] O
io_oeb[13] O
io_oeb[14] O
io_oeb[15] O
io_oeb[16] O
io_oeb[17] O
io_oeb[18] O
io_oeb[19] O
io_oeb[1] O
io_oeb[20] O
io_oeb[21] O
io_oeb[22] O
io_oeb[23] O
io_oeb[24] O
io_oeb[25] O
io_oeb[26] O
io_oeb[27] O
io_oeb[28] O
io_oeb[29] O
io_oeb[2] O
io_oeb[30] O
io_oeb[31] O
io_oeb[32] O
io_oeb[33] O
io_oeb[34] O
io_oeb[35] O
io_oeb[36] O
io_oeb[37] O
io_oeb[3] O
io_oeb[4] O
io_oeb[5] O
io_oeb[6] O
io_oeb[7] O
io_oeb[8] O
io_oeb[9] O
io_out[0] O
io_out[10] O
io_out[11] O
io_out[12] O
io_out[13] O
io_out[14] O
io_out[15] O
io_out[16] O
io_out[17] O
io_out[18] O
io_out[19] O
io_out[1] O
io_out[20] O
io_out[21] O
io_out[22] O
io_out[23] O
io_out[24] O
io_out[25] O
io_out[26] O
io_out[27] O
io_out[28] O
io_out[29] O
io_out[2] O
io_out[30] O
io_out[31] O
io_out[32] O
io_out[33] O
io_out[34] O
io_out[35] O
io_out[36] O
io_out[37] O
io_out[3] O
io_out[4] O
io_out[5] O
io_out[6] O
io_out[7] O
io_out[8] O
io_out[9] O
la_data_in[0] I
la_data_in[10] I
la_data_in[11] I
la_data_in[12] I
la_data_in[13] I
la_data_in[14] I
la_data_in[15] I
la_data_in[16] I
la_data_in[17] I
la_data_in[18] I
la_data_in[19] I
la_data_in[1] I
la_data_in[20] I
la_data_in[21] I
la_data_in[22] I
la_data_in[23] I
la_data_in[24] I
la_data_in[25] I
la_data_in[26] I
la_data_in[27] I
la_data_in[28] I
la_data_in[29] I
la_data_in[2] I
la_data_in[30] I
la_data_in[31] I
la_data_in[32] I
la_data_in[33] I
la_data_in[34] I
la_data_in[35] I
la_data_in[36] I
la_data_in[37] I
la_data_in[38] I
la_data_in[39] I
la_data_in[3] I
la_data_in[40] I
la_data_in[41] I
la_data_in[42] I
la_data_in[43] I
la_data_in[44] I
la_data_in[45] I
la_data_in[46] I
la_data_in[47] I
la_data_in[48] I
la_data_in[49] I
la_data_in[4] I
la_data_in[50] I
la_data_in[51] I
la_data_in[52] I
la_data_in[53] I
la_data_in[54] I
la_data_in[55] I
la_data_in[56] I
la_data_in[57] I
la_data_in[58] I
la_data_in[59] I
la_data_in[5] I
la_data_in[60] I
la_data_in[61] I
la_data_in[62] I
la_data_in[63] I
la_data_in[6] I
la_data_in[7] I
la_data_in[8] I
la_data_in[9] I
la_data_out[0] O
la_data_out[10] O
la_data_out[11] O
la_data_out[12] O
la_data_out[13] O
la_data_out[14] O
la_data_out[15] O
la_data_out[16] O
la_data_out[17] O
la_data_out[18] O
la_data_out[19] O
la_data_out[1] O
la_data_out[20] O
la_data_out[21] O
la_data_out[22] O
la_data_out[23] O
la_data_out[24] O
la_data_out[25] O
la_data_out[26] O
la_data_out[27] O
la_data_out[28] O
la_data_out[29] O
la_data_out[2] O
la_data_out[30] O
la_data_out[31] O
la_data_out[32] O
la_data_out[33] O
la_data_out[34] O
la_data_out[35] O
la_data_out[36] O
la_data_out[37] O
la_data_out[38] O
la_data_out[39] O
la_data_out[3] O
la_data_out[40] O
la_data_out[41] O
la_data_out[42] O
la_data_out[43] O
la_data_out[44] O
la_data_out[45] O
la_data_out[46] O
la_data_out[47] O
la_data_out[48] O
la_data_out[49] O
la_data_out[4] O
la_data_out[50] O
la_data_out[51] O
la_data_out[52] O
la_data_out[53] O
la_data_out[54] O
la_data_out[55] O
la_data_out[56] O
la_data_out[57] O
la_data_out[58] O
la_data_out[59] O
la_data_out[5] O
la_data_out[60] O
la_data_out[61] O
la_data_out[62] O
la_data_out[63] O
la_data_out[6] O
la_data_out[7] O
la_data_out[8] O
la_data_out[9] O
la_oenb[0] I
la_oenb[10] I
la_oenb[11] I
la_oenb[12] I
la_oenb[13] I
la_oenb[14] I
la_oenb[15] I
la_oenb[16] I
la_oenb[17] I
la_oenb[18] I
la_oenb[19] I
la_oenb[1] I
la_oenb[20] I
la_oenb[21] I
la_oenb[22] I
la_oenb[23] I
la_oenb[24] I
la_oenb[25] I
la_oenb[26] I
la_oenb[27] I
la_oenb[28] I
la_oenb[29] I
la_oenb[2] I
la_oenb[30] I
la_oenb[31] I
la_oenb[32] I
la_oenb[33] I
la_oenb[34] I
la_oenb[35] I
la_oenb[36] I
la_oenb[37] I
la_oenb[38] I
la_oenb[39] I
la_oenb[3] I
la_oenb[40] I
la_oenb[41] I
la_oenb[42] I
la_oenb[43] I
la_oenb[44] I
la_oenb[45] I
la_oenb[46] I
la_oenb[47] I
la_oenb[48] I
la_oenb[49] I
la_oenb[4] I
la_oenb[50] I
la_oenb[51] I
la_oenb[52] I
la_oenb[53] I
la_oenb[54] I
la_oenb[55] I
la_oenb[56] I
la_oenb[57] I
la_oenb[58] I
la_oenb[59] I
la_oenb[5] I
la_oenb[60] I
la_oenb[61] I
la_oenb[62] I
la_oenb[63] I
la_oenb[6] I
la_oenb[7] I
la_oenb[8] I
la_oenb[9] I
user_clock2 I
user_irq[0] O
user_irq[1] O
user_irq[2] O
wb_clk_i I
wb_rst_i I
wbs_ack_o O
wbs_adr_i[0] I
wbs_adr_i[10] I
wbs_adr_i[11] I
wbs_adr_i[12] I
wbs_adr_i[13] I
wbs_adr_i[14] I
wbs_adr_i[15] I
wbs_adr_i[16] I
wbs_adr_i[17] I
wbs_adr_i[18] I
wbs_adr_i[19] I
wbs_adr_i[1] I
wbs_adr_i[20] I
wbs_adr_i[21] I
wbs_adr_i[22] I
wbs_adr_i[23] I
wbs_adr_i[24] I
wbs_adr_i[25] I
wbs_adr_i[26] I
wbs_adr_i[27] I
wbs_adr_i[28] I
wbs_adr_i[29] I
wbs_adr_i[2] I
wbs_adr_i[30] I
wbs_adr_i[31] I
wbs_adr_i[3] I
wbs_adr_i[4] I
wbs_adr_i[5] I
wbs_adr_i[6] I
wbs_adr_i[7] I
wbs_adr_i[8] I
wbs_adr_i[9] I
wbs_cyc_i I
wbs_dat_i[0] I
wbs_dat_i[10] I
wbs_dat_i[11] I
wbs_dat_i[12] I
wbs_dat_i[13] I
wbs_dat_i[14] I
wbs_dat_i[15] I
wbs_dat_i[16] I
wbs_dat_i[17] I
wbs_dat_i[18] I
wbs_dat_i[19] I
wbs_dat_i[1] I
wbs_dat_i[20] I
wbs_dat_i[21] I
wbs_dat_i[22] I
wbs_dat_i[23] I
wbs_dat_i[24] I
wbs_dat_i[25] I
wbs_dat_i[26] I
wbs_dat_i[27] I
wbs_dat_i[28] I
wbs_dat_i[29] I
wbs_dat_i[2] I
wbs_dat_i[30] I
wbs_dat_i[31] I
wbs_dat_i[3] I
wbs_dat_i[4] I
wbs_dat_i[5] I
wbs_dat_i[6] I
wbs_dat_i[7] I
wbs_dat_i[8] I
wbs_dat_i[9] I
wbs_dat_o[0] O
wbs_dat_o[10] O
wbs_dat_o[11] O
wbs_dat_o[12] O
wbs_dat_o[13] O
wbs_dat_o[14] O
wbs_dat_o[15] O
wbs_dat_o[16] O
wbs_dat_o[17] O
wbs_dat_o[18] O
wbs_dat_o[19] O
wbs_dat_o[1] O
wbs_dat_o[20] O
wbs_dat_o[21] O
wbs_dat_o[22] O
wbs_dat_o[23] O
wbs_dat_o[24] O
wbs_dat_o[25] O
wbs_dat_o[26] O
wbs_dat_o[27] O
wbs_dat_o[28] O
wbs_dat_o[29] O
wbs_dat_o[2] O
wbs_dat_o[30] O
wbs_dat_o[31] O
wbs_dat_o[3] O
wbs_dat_o[4] O
wbs_dat_o[5] O
wbs_dat_o[6] O
wbs_dat_o[7] O
wbs_dat_o[8] O
wbs_dat_o[9] O
wbs_sel_i[0] I
wbs_sel_i[1] I
wbs_sel_i[2] I
wbs_sel_i[3] I
wbs_stb_i I
wbs_we_i I

*D_NET *1 0.456461
*CONN
*P io_in[0] I
*I *419:io_in[0] I *D user_proj_example
*CAP
1 io_in[0] 0.0674845
2 *419:io_in[0] 0.0001085
3 *1:8 0.0962359
4 *1:7 0.0961274
5 *1:5 0.0674845
6 *1:5 *69:12 0.127683
7 *1:5 *172:8 0
8 *1:5 *184:16 0.00133709
9 *1:5 *238:16 0
10 *1:5 *244:8 0
*RES
1 io_in[0] *1:5 673.764 
2 *1:5 *1:7 4.5 
3 *1:7 *1:8 836.888 
4 *1:8 *419:io_in[0] 9.884 
*END

*D_NET *2 0.434169
*CONN
*P io_in[10] I
*I *419:io_in[10] I *D user_proj_example
*CAP
1 io_in[10] 0.000431059
2 *419:io_in[10] 0
3 *2:21 0.00121254
4 *2:19 0.00231937
5 *2:11 0.0216383
6 *2:10 0.0205314
7 *2:8 0.000863736
8 *2:7 0.0012948
9 *2:8 *38:8 0.0359071
10 *2:8 *50:32 0.0001672
11 *2:8 *72:17 0.0344829
12 *2:11 *38:11 0
13 *2:11 *50:27 0.000324936
14 *2:11 *50:29 0.145857
15 *2:11 *75:5 0.0169099
16 *2:19 *3:19 0.00114527
17 *2:19 *50:22 0.00382941
18 *2:19 *50:27 0.00283271
19 *2:19 *66:11 0
20 *2:19 *75:5 0.000814744
21 *2:19 *104:11 4.02853e-05
22 *2:21 *50:9 0.0684291
23 *2:21 *50:22 0.00110485
24 *2:21 *75:5 0.0740329
*RES
1 io_in[10] *2:7 6.632 
2 *2:7 *2:8 93.912 
3 *2:8 *2:10 4.5 
4 *2:10 *2:11 373.048 
5 *2:11 *2:19 35.936 
6 *2:19 *2:21 186.888 
7 *2:21 *419:io_in[10] 4.5 
*END

*D_NET *3 0.194998
*CONN
*P io_in[11] I
*I *419:io_in[11] I *D user_proj_example
*CAP
1 io_in[11] 0.000566095
2 *419:io_in[11] 0.00031268
3 *3:19 0.00878866
4 *3:18 0.010993
5 *3:13 0.0427846
6 *3:11 0.0408338
7 *3:19 *22:11 0.010204
8 *3:19 *38:11 0.0138705
9 *3:19 *50:9 0.000198827
10 *3:19 *50:22 0.00196759
11 *3:19 *50:27 0.0012791
12 *3:19 *50:29 0.000812727
13 *3:19 *97:9 0.0612412
14 *2:19 *3:19 0.00114527
*RES
1 io_in[11] *3:11 3.068 
2 *3:11 *3:13 341.432 
3 *3:13 *3:18 29.904 
4 *3:18 *3:19 237.224 
5 *3:19 *419:io_in[11] 15.476 
*END

*D_NET *4 0.167407
*CONN
*P io_in[12] I
*I *419:io_in[12] I *D user_proj_example
*CAP
1 io_in[12] 0.000554338
2 *419:io_in[12] 0.00137559
3 *4:11 0.0621341
4 *4:10 0.0635901
5 *4:7 0.00338589
6 *4:10 *5:8 0.000467101
7 *4:10 *6:8 0.0147003
8 *4:10 *72:17 0.000242364
9 *4:11 *419:io_in[18] 0.000348709
10 *4:11 *419:io_in[20] 0.000496414
11 *4:11 *43:10 0.000226662
12 *4:11 *55:10 0.00902664
13 *4:11 *58:8 0.0074497
14 *4:11 *63:8 0
15 *4:11 *76:8 0.00314426
16 *4:11 *80:10 0.000264934
17 *4:11 *114:8 0
*RES
1 io_in[12] *4:7 7.256 
2 *4:7 *4:10 48.492 
3 *4:10 *4:11 567.112 
4 *4:11 *419:io_in[12] 13.704 
*END

*D_NET *5 0.25517
*CONN
*P io_in[13] I
*I *419:io_in[13] I *D user_proj_example
*CAP
1 io_in[13] 0.000465782
2 *419:io_in[13] 0.00182348
3 *5:11 0.0604724
4 *5:10 0.0586489
5 *5:8 0.00140214
6 *5:7 0.00186792
7 *419:io_in[13] *80:11 9.02563e-05
8 *5:8 *6:8 0.0436949
9 *5:8 *44:17 0.0351854
10 *5:8 *72:17 0.000752062
11 *5:11 *48:10 0.0147359
12 *5:11 *54:8 0.0355638
13 *5:11 *60:8 0
14 *5:11 *114:8 0
15 *4:10 *5:8 0.000467101
*RES
1 io_in[13] *5:7 6.84 
2 *5:7 *5:8 114.92 
3 *5:8 *5:10 4.5 
4 *5:10 *5:11 558.792 
5 *5:11 *419:io_in[13] 17.032 
*END

*D_NET *6 0.238373
*CONN
*P io_in[14] I
*I *419:io_in[14] I *D user_proj_example
*CAP
1 io_in[14] 0.00048836
2 *419:io_in[14] 0.00223028
3 *6:11 0.0644558
4 *6:10 0.0622255
5 *6:8 0.00967374
6 *6:7 0.0101621
7 *419:io_in[14] *44:13 0
8 *419:io_in[14] *81:11 3.26115e-05
9 *6:8 *44:17 0.0120927
10 *6:11 *49:8 0.0183898
11 *6:11 *60:8 0
12 *6:11 *72:14 0
13 *6:11 *86:10 0.000226607
14 *4:10 *6:8 0.0147003
15 *5:8 *6:8 0.0436949
*RES
1 io_in[14] *6:7 7.048 
2 *6:7 *6:8 186.264 
3 *6:8 *6:10 4.5 
4 *6:10 *6:11 549.848 
5 *6:11 *419:io_in[14] 19.944 
*END

*D_NET *7 0.353509
*CONN
*P io_in[15] I
*I *419:io_in[15] I *D user_proj_example
*CAP
1 io_in[15] 0.000321799
2 *419:io_in[15] 0.00269734
3 *7:11 0.0313497
4 *7:10 0.0286524
5 *7:8 0.0319554
6 *7:7 0.0322772
7 *7:8 *9:8 0.0301142
8 *7:8 *16:8 0.0268955
9 *7:8 *17:11 0.000457737
10 *7:8 *45:14 0.164541
11 *7:11 *57:15 0.00424728
*RES
1 io_in[15] *7:7 6.84 
2 *7:7 *7:8 524.472 
3 *7:8 *7:10 4.5 
4 *7:10 *7:11 243.984 
5 *7:11 *419:io_in[15] 19.292 
*END

*D_NET *8 0.208212
*CONN
*P io_in[16] I
*I *419:io_in[16] I *D user_proj_example
*CAP
1 io_in[16] 0.000215646
2 *419:io_in[16] 0.00146762
3 *8:11 0.0323719
4 *8:10 0.0309043
5 *8:8 0.0375886
6 *8:7 0.0378043
7 *419:io_in[16] *20:13 0.00118897
8 *419:io_in[16] *46:9 0
9 *419:io_in[16] *94:8 9.12079e-05
10 *8:8 *14:16 0.0146506
11 *8:8 *15:8 0.0192151
12 *8:8 *17:11 0.00264168
13 *8:8 *45:14 0.0279908
14 *8:8 *92:14 0.00208133
15 *8:11 *46:9 0
*RES
1 io_in[16] *8:7 6.008 
2 *8:7 *8:8 386.984 
3 *8:8 *8:10 4.5 
4 *8:10 *8:11 254.28 
5 *8:11 *419:io_in[16] 19.764 
*END

*D_NET *9 0.163708
*CONN
*P io_in[17] I
*I *419:io_in[17] I *D user_proj_example
*CAP
1 io_in[17] 0.000463654
2 *419:io_in[17] 0.00010297
3 *9:11 0.0319356
4 *9:10 0.0318326
5 *9:8 0.0244268
6 *9:7 0.0248904
7 *9:8 *16:8 0.0199416
8 *9:11 *84:10 0
9 *7:8 *9:8 0.0301142
*RES
1 io_in[17] *9:7 7.256 
2 *9:7 *9:8 258.648 
3 *9:8 *9:10 4.5 
4 *9:10 *9:11 260.52 
5 *9:11 *419:io_in[17] 0.884 
*END

*D_NET *10 0.117562
*CONN
*P io_in[18] I
*I *419:io_in[18] I *D user_proj_example
*CAP
1 io_in[18] 0.000992352
2 *419:io_in[18] 0.00144068
3 *10:11 0.0314903
4 *10:10 0.0300496
5 *10:8 0.0100474
6 *10:7 0.0110398
7 *419:io_in[18] *58:8 0.00176387
8 *419:io_in[18] *84:11 0
9 *419:io_in[18] *85:11 6.58002e-06
10 *10:8 *13:8 0.00253044
11 *10:8 *86:14 0.0278519
12 *10:11 *11:19 0
13 *10:11 *48:7 0
14 *10:11 *86:10 0
15 *4:11 *419:io_in[18] 0.000348709
*RES
1 io_in[18] *10:7 11.832 
2 *10:7 *10:8 121.16 
3 *10:8 *10:10 4.5 
4 *10:10 *10:11 247.624 
5 *10:11 *419:io_in[18] 21.844 
*END

*D_NET *11 0.0677572
*CONN
*P io_in[19] I
*I *419:io_in[19] I *D user_proj_example
*CAP
1 io_in[19] 0.000324084
2 *419:io_in[19] 0.00278697
3 *11:19 0.0158038
4 *11:18 0.0137823
5 *11:13 0.0176473
6 *11:11 0.017206
7 *419:io_in[19] *72:14 0.000206645
8 *419:io_in[19] *86:10 0
9 *10:11 *11:19 0
*RES
1 io_in[19] *11:11 2.86 
2 *11:11 *11:13 140.088 
3 *11:13 *11:18 15.552 
4 *11:18 *11:19 106.288 
5 *11:19 *419:io_in[19] 19.708 
*END

*D_NET *12 0.3415
*CONN
*P io_in[1] I
*I *419:io_in[1] I *D user_proj_example
*CAP
1 io_in[1] 0.000566095
2 *419:io_in[1] 0.000202702
3 *12:16 0.0880404
4 *12:15 0.0878377
5 *12:13 0.0821341
6 *12:11 0.0827002
7 *419:io_in[1] *22:11 1.8462e-05
8 *12:13 *404:10 0
*RES
1 io_in[1] *12:11 3.068 
2 *12:11 *12:13 664.456 
3 *12:13 *12:15 4.5 
4 *12:15 *12:16 765.336 
5 *12:16 *419:io_in[1] 10.612 
*END

*D_NET *13 0.101622
*CONN
*P io_in[20] I
*I *419:io_in[20] I *D user_proj_example
*CAP
1 io_in[20] 0.00103742
2 *419:io_in[20] 0.00159604
3 *13:11 0.0314444
4 *13:10 0.0298484
5 *13:8 0.0152975
6 *13:7 0.0163349
7 *419:io_in[20] *51:13 0
8 *419:io_in[20] *58:8 0.0026871
9 *13:11 *49:7 0.000349476
10 *13:11 *87:13 0
11 *4:11 *419:io_in[20] 0.000496414
12 *10:8 *13:8 0.00253044
*RES
1 io_in[20] *13:7 12.04 
2 *13:7 *13:8 131.976 
3 *13:8 *13:10 4.5 
4 *13:10 *13:11 247.416 
5 *13:11 *419:io_in[20] 24.34 
*END

*D_NET *14 0.225542
*CONN
*P io_in[21] I
*I *419:io_in[21] I *D user_proj_example
*CAP
1 io_in[21] 0.00041357
2 *419:io_in[21] 0.000175654
3 *14:19 0.0322516
4 *14:18 0.032076
5 *14:16 0.00297227
6 *14:15 0.00338584
7 *14:16 *15:8 0.0389933
8 *14:16 *92:14 0.100623
9 *14:19 *89:10 0
10 *8:8 *14:16 0.0146506
*RES
1 io_in[21] *14:15 7.88 
2 *14:15 *14:16 268.424 
3 *14:16 *14:18 4.5 
4 *14:18 *14:19 261.976 
5 *14:19 *419:io_in[21] 1.508 
*END

*D_NET *15 0.305861
*CONN
*P io_in[22] I
*I *419:io_in[22] I *D user_proj_example
*CAP
1 io_in[22] 0.000260275
2 *419:io_in[22] 0.00010297
3 *15:11 0.0320541
4 *15:10 0.0319512
5 *15:8 0.00463593
6 *15:7 0.0048962
7 *15:8 *17:11 0.159609
8 *15:8 *92:14 0.0141429
9 *15:11 *55:11 0
10 *8:8 *15:8 0.0192151
11 *14:16 *15:8 0.0389933
*RES
1 io_in[22] *15:7 6.216 
2 *15:7 *15:8 402.792 
3 *15:8 *15:10 4.5 
4 *15:10 *15:11 261.56 
5 *15:11 *419:io_in[22] 0.884 
*END

*D_NET *16 0.258834
*CONN
*P io_in[23] I
*I *419:io_in[23] I *D user_proj_example
*CAP
1 io_in[23] 0.000386832
2 *419:io_in[23] 0.00248222
3 *16:11 0.0317519
4 *16:10 0.0292697
5 *16:8 0.0537671
6 *16:7 0.0541539
7 *16:8 *17:11 0.0401849
8 *7:8 *16:8 0.0268955
9 *9:8 *16:8 0.0199416
*RES
1 io_in[23] *16:7 7.048 
2 *16:7 *16:8 535.496 
3 *16:8 *16:10 4.5 
4 *16:10 *16:11 243.776 
5 *16:11 *419:io_in[23] 17.316 
*END

*D_NET *17 0.378642
*CONN
*P io_in[24] I
*I *419:io_in[24] I *D user_proj_example
*CAP
1 io_in[24] 0.00272174
2 *419:io_in[24] 0.00281295
3 *17:14 0.0322035
4 *17:13 0.0293906
5 *17:11 0.0321729
6 *17:10 0.0348947
7 *419:io_in[24] *72:14 0.000206645
8 *419:io_in[24] *92:10 0
9 *17:11 *45:14 0.0281062
10 *17:11 *92:14 0.0132395
11 *7:8 *17:11 0.000457737
12 *8:8 *17:11 0.00264168
13 *15:8 *17:11 0.159609
14 *16:8 *17:11 0.0401849
*RES
1 io_in[24] *17:10 30.58 
2 *17:10 *17:11 637 
3 *17:11 *17:13 4.5 
4 *17:13 *17:14 244.4 
5 *17:14 *419:io_in[24] 19.708 
*END

*D_NET *18 0.197801
*CONN
*P io_in[25] I
*I *419:io_in[25] I *D user_proj_example
*CAP
1 io_in[25] 0.00411697
2 *419:io_in[25] 0.00288057
3 *18:19 0.0771504
4 *18:18 0.0742699
5 *18:16 0.0176331
6 *18:15 0.0217501
7 *18:19 *72:14 0
8 *18:19 *78:14 0
*RES
1 io_in[25] *18:15 36.168 
2 *18:15 *18:16 148.408 
3 *18:16 *18:18 4.5 
4 *18:18 *18:19 625.768 
5 *18:19 *419:io_in[25] 25.456 
*END

*D_NET *19 0.180355
*CONN
*P io_in[26] I
*I *419:io_in[26] I *D user_proj_example
*CAP
1 io_in[26] 0.00352087
2 *419:io_in[26] 0.00316149
3 *19:19 0.0786559
4 *19:18 0.0754944
5 *19:16 0.00800056
6 *19:15 0.0115214
7 *419:io_in[26] *94:7 0
8 *19:19 *78:14 0
9 *19:19 *109:14 0
*RES
1 io_in[26] *19:15 31.8 
2 *19:15 *19:16 67.288 
3 *19:16 *19:18 4.5 
4 *19:18 *19:19 638.248 
5 *19:19 *419:io_in[26] 27.744 
*END

*D_NET *20 0.228636
*CONN
*P io_in[27] I
*I *419:io_in[27] I *D user_proj_example
*CAP
1 io_in[27] 0.000626733
2 *419:io_in[27] 0.00110392
3 *20:13 0.0751217
4 *20:11 0.0746445
5 *20:13 *58:8 0.0133863
6 *20:13 *76:8 0.0575115
7 *20:13 *84:10 0.000461339
8 *20:13 *85:10 0.00157804
9 *20:13 *89:10 0.00123324
10 *20:13 *92:10 0.000890063
11 *20:13 *94:8 0
12 *20:13 *95:8 0
13 *20:13 *109:13 0.000889952
14 *419:io_in[16] *20:13 0.00118897
*RES
1 io_in[27] *20:11 3.276 
2 *20:11 *20:13 674.232 
3 *20:13 *419:io_in[27] 12.248 
*END

*D_NET *21 0.318974
*CONN
*P io_in[28] I
*I *419:io_in[28] I *D user_proj_example
*CAP
1 io_in[28] 0.000993994
2 *419:io_in[28] 0.000235621
3 *21:11 0.0519072
4 *21:10 0.0516716
5 *21:8 0.00838439
6 *21:7 0.00937838
7 *21:11 *24:19 0.134686
8 *21:11 *77:10 0.0057159
9 *21:11 *79:8 0.0560008
*RES
1 io_in[28] *21:7 11.624 
2 *21:7 *21:8 70.408 
3 *21:8 *21:10 4.5 
4 *21:10 *21:11 675.896 
5 *21:11 *419:io_in[28] 6.216 
*END

*D_NET *22 0.279825
*CONN
*P io_in[29] I
*I *419:io_in[29] I *D user_proj_example
*CAP
1 io_in[29] 0.00180045
2 *419:io_in[29] 0.000181725
3 *22:11 0.0662966
4 *22:10 0.0661149
5 *22:8 0.0174112
6 *22:7 0.0192117
7 *22:11 *26:11 0
8 *22:11 *50:7 0.000214336
9 *22:11 *50:9 0.0949191
10 *22:11 *97:9 0.00345223
11 *419:io_in[1] *22:11 1.8462e-05
12 *3:19 *22:11 0.010204
*RES
1 io_in[29] *22:7 17.864 
2 *22:7 *22:8 146.328 
3 *22:8 *22:10 4.5 
4 *22:10 *22:11 678.392 
5 *22:11 *419:io_in[29] 14.436 
*END

*D_NET *23 0.325452
*CONN
*P io_in[2] I
*I *419:io_in[2] I *D user_proj_example
*CAP
1 io_in[2] 0.000433794
2 *419:io_in[2] 0.000240393
3 *23:16 0.081158
4 *23:15 0.0809176
5 *23:13 0.0810834
6 *23:11 0.0815172
7 *419:io_in[2] *50:9 0.000101111
*RES
1 io_in[2] *23:11 2.444 
2 *23:11 *23:13 655.096 
3 *23:13 *23:15 4.5 
4 *23:15 *23:16 690.456 
5 *23:16 *419:io_in[2] 11.236 
*END

*D_NET *24 0.394701
*CONN
*P io_in[30] I
*I *419:io_in[30] I *D user_proj_example
*CAP
1 io_in[30] 0.000477894
2 *419:io_in[30] 0.00025985
3 *24:19 0.00770592
4 *24:18 0.00744607
5 *24:16 0.0275572
6 *24:15 0.0275572
7 *24:13 0.0388634
8 *24:11 0.0393413
9 *24:13 *314:8 0
10 *24:13 *324:8 0.00295492
11 *24:13 *409:12 0
12 *24:13 *417:22 0
13 *24:16 *417:19 0.000306447
14 *24:19 *40:8 0.00251855
15 *24:19 *59:8 0.100175
16 *24:19 *79:8 0.00145832
17 *24:19 *79:12 0.00339295
18 *21:11 *24:19 0.134686
*RES
1 io_in[30] *24:11 2.652 
2 *24:11 *24:13 341.432 
3 *24:13 *24:15 4.5 
4 *24:15 *24:16 231.4 
5 *24:16 *24:18 4.5 
6 *24:18 *24:19 359.112 
7 *24:19 *419:io_in[30] 6.424 
*END

*D_NET *25 0.252155
*CONN
*P io_in[31] I
*I *419:io_in[31] I *D user_proj_example
*CAP
1 io_in[31] 0.000206038
2 *419:io_in[31] 0.000189814
3 *25:16 0.0360049
4 *25:15 0.0358151
5 *25:13 0.0878622
6 *25:11 0.0880682
7 *419:io_in[31] *75:5 0.000115415
8 *25:13 *283:14 0
9 *25:13 *358:14 0
10 *25:16 *285:17 0.00389328
*RES
1 io_in[31] *25:11 1.404 
2 *25:11 *25:13 707.72 
3 *25:13 *25:15 4.5 
4 *25:15 *25:16 306.696 
5 *25:16 *419:io_in[31] 10.612 
*END

*D_NET *26 0.355505
*CONN
*P io_in[32] I
*I *419:io_in[32] I *D user_proj_example
*CAP
1 io_in[32] 0.0026069
2 *419:io_in[32] 0.000551246
3 *26:11 0.0845354
4 *26:10 0.0839842
5 *26:8 0.0454587
6 *26:7 0.0480656
7 *419:io_in[32] *50:22 1.37424e-05
8 *26:8 *313:13 0
9 *26:11 *38:11 0.0751927
10 *26:11 *97:9 0.015096
11 *22:11 *26:11 0
*RES
1 io_in[32] *26:7 24.104 
2 *26:7 *26:8 382.408 
3 *26:8 *26:10 4.5 
4 *26:10 *26:11 697.528 
5 *26:11 *419:io_in[32] 16.984 
*END

*D_NET *27 0.373376
*CONN
*P io_in[33] I
*I *419:io_in[33] I *D user_proj_example
*CAP
1 io_in[33] 0.000343806
2 *419:io_in[33] 8.00132e-06
3 *27:16 0.0546977
4 *27:15 0.0546897
5 *27:13 0.0756385
6 *27:11 0.0759823
7 *419:io_in[33] *50:22 0.000115415
8 *419:io_in[33] *75:5 0.000115415
9 *27:13 *34:5 0.0952329
10 *27:16 *139:13 0.0146743
11 *27:16 *229:15 0.00187828
*RES
1 io_in[33] *27:11 2.028 
2 *27:11 *27:13 726.44 
3 *27:13 *27:15 4.5 
4 *27:15 *27:16 465.4 
5 *27:16 *419:io_in[33] 9.312 
*END

*D_NET *28 0.31463
*CONN
*P io_in[34] I
*I *419:io_in[34] I *D user_proj_example
*CAP
1 io_in[34] 0.0906956
2 *419:io_in[34] 0.000257609
3 *28:8 0.0633218
4 *28:7 0.0630642
5 *28:5 0.0906956
6 *419:io_in[34] *75:5 0.000616673
7 *28:8 *65:11 0
8 *28:8 *294:19 0.0059788
*RES
1 io_in[34] *28:5 732.628 
2 *28:5 *28:7 4.5 
3 *28:7 *28:8 543.816 
4 *28:8 *419:io_in[34] 11.86 
*END

*D_NET *29 0.328902
*CONN
*P io_in[35] I
*I *419:io_in[35] I *D user_proj_example
*CAP
1 io_in[35] 0.000477894
2 *419:io_in[35] 0.000227398
3 *29:16 0.071968
4 *29:15 0.0717406
5 *29:13 0.0916632
6 *29:11 0.0921411
7 *419:io_in[35] *75:5 0.000366044
8 *29:16 *419:la_oenb[59] 0.000317454
*RES
1 io_in[35] *29:11 2.652 
2 *29:11 *29:13 742.04 
3 *29:13 *29:15 4.5 
4 *29:15 *29:16 624.936 
5 *29:16 *419:io_in[35] 11.236 
*END

*D_NET *30 0.521816
*CONN
*P io_in[36] I
*I *419:io_in[36] I *D user_proj_example
*CAP
1 io_in[36] 0.000206038
2 *419:io_in[36] 6.00369e-05
3 *30:16 0.16768
4 *30:15 0.16762
5 *30:13 0.0930218
6 *30:11 0.0932279
7 *30:16 *68:9 0
*RES
1 io_in[36] *30:11 1.404 
2 *30:11 *30:13 752.44 
3 *30:13 *30:15 4.5 
4 *30:15 *30:16 702.936 
5 *30:16 *419:io_in[36] 9.468 
*END

*D_NET *31 0.368461
*CONN
*P io_in[37] I
*I *419:io_in[37] I *D user_proj_example
*CAP
1 io_in[37] 0.000626733
2 *419:io_in[37] 0.000108493
3 *31:16 0.0897115
4 *31:15 0.089603
5 *31:13 0.0938922
6 *31:11 0.0945189
7 *31:13 *394:10 0
*RES
1 io_in[37] *31:11 3.276 
2 *31:11 *31:13 760.76 
3 *31:13 *31:15 4.5 
4 *31:15 *31:16 784.056 
5 *31:16 *419:io_in[37] 9.884 
*END

*D_NET *32 0.302666
*CONN
*P io_in[3] I
*I *419:io_in[3] I *D user_proj_example
*CAP
1 io_in[3] 0.000298674
2 *419:io_in[3] 0.000267215
3 *32:16 0.0708165
4 *32:15 0.0705493
5 *32:13 0.0801426
6 *32:11 0.0804413
7 *419:io_in[3] *50:9 0.000150661
*RES
1 io_in[3] *32:11 1.82 
2 *32:11 *32:13 645.944 
3 *32:13 *32:15 4.5 
4 *32:15 *32:16 615.576 
5 *32:16 *419:io_in[3] 11.652 
*END

*D_NET *33 0.291062
*CONN
*P io_in[4] I
*I *419:io_in[4] I *D user_proj_example
*CAP
1 io_in[4] 0.00601986
2 *419:io_in[4] 2.90098e-05
3 *33:12 0.0647713
4 *33:11 0.0647423
5 *33:9 0.073468
6 *33:7 0.0735432
7 *33:5 0.00609507
8 *419:io_in[4] *50:9 0.000115403
9 *33:12 *408:7 0.00227783
*RES
1 io_in[4] *33:5 49.66 
2 *33:5 *33:7 0.52 
3 *33:7 *33:9 589.888 
4 *33:9 *33:11 4.5 
5 *33:11 *33:12 540.28 
6 *33:12 *419:io_in[4] 9.312 
*END

*D_NET *34 0.337332
*CONN
*P io_in[5] I
*I *419:io_in[5] I *D user_proj_example
*CAP
1 io_in[5] 0.0639712
2 *419:io_in[5] 0.0001085
3 *34:8 0.0570784
4 *34:7 0.0569699
5 *34:5 0.0639712
6 *27:13 *34:5 0.0952329
*RES