*SPEF "ieee 1481-1999"
*DESIGN "user_project_wrapper"
*DATE "11:11:11 Fri 11 11, 1111"
*VENDOR "OpenRCX"
*PROGRAM "Parallel Extraction"
*VERSION "1.0"
*DESIGN_FLOW "NAME_SCOPE LOCAL" "PIN_CAP NONE"
*DIVIDER /
*DELIMITER :
*BUS_DELIMITER []
*T_UNIT 1 NS
*C_UNIT 1 PF
*R_UNIT 1 OHM
*L_UNIT 1 HENRY

*NAME_MAP
*1 io_in[0]
*2 io_in[10]
*3 io_in[11]
*4 io_in[12]
*5 io_in[13]
*6 io_in[14]
*7 io_in[15]
*8 io_in[16]
*9 io_in[17]
*10 io_in[18]
*11 io_in[19]
*12 io_in[1]
*13 io_in[20]
*14 io_in[21]
*15 io_in[22]
*16 io_in[23]
*17 io_in[24]
*18 io_in[25]
*19 io_in[26]
*20 io_in[27]
*21 io_in[28]
*22 io_in[29]
*23 io_in[2]
*24 io_in[30]
*25 io_in[31]
*26 io_in[32]
*27 io_in[33]
*28 io_in[34]
*29 io_in[35]
*30 io_in[36]
*31 io_in[37]
*32 io_in[3]
*33 io_in[4]
*34 io_in[5]
*35 io_in[6]
*36 io_in[7]
*37 io_in[8]
*38 io_in[9]
*39 io_oeb[0]
*40 io_oeb[10]
*41 io_oeb[11]
*42 io_oeb[12]
*43 io_oeb[13]
*44 io_oeb[14]
*45 io_oeb[15]
*46 io_oeb[16]
*47 io_oeb[17]
*48 io_oeb[18]
*49 io_oeb[19]
*50 io_oeb[1]
*51 io_oeb[20]
*52 io_oeb[21]
*53 io_oeb[22]
*54 io_oeb[23]
*55 io_oeb[24]
*56 io_oeb[25]
*57 io_oeb[26]
*58 io_oeb[27]
*59 io_oeb[28]
*60 io_oeb[29]
*61 io_oeb[2]
*62 io_oeb[30]
*63 io_oeb[31]
*64 io_oeb[32]
*65 io_oeb[33]
*66 io_oeb[34]
*67 io_oeb[35]
*68 io_oeb[36]
*69 io_oeb[37]
*70 io_oeb[3]
*71 io_oeb[4]
*72 io_oeb[5]
*73 io_oeb[6]
*74 io_oeb[7]
*75 io_oeb[8]
*76 io_oeb[9]
*77 io_out[0]
*78 io_out[10]
*79 io_out[11]
*80 io_out[12]
*81 io_out[13]
*82 io_out[14]
*83 io_out[15]
*84 io_out[16]
*85 io_out[17]
*86 io_out[18]
*87 io_out[19]
*88 io_out[1]
*89 io_out[20]
*90 io_out[21]
*91 io_out[22]
*92 io_out[23]
*93 io_out[24]
*94 io_out[25]
*95 io_out[26]
*96 io_out[27]
*97 io_out[28]
*98 io_out[29]
*99 io_out[2]
*100 io_out[30]
*101 io_out[31]
*102 io_out[32]
*103 io_out[33]
*104 io_out[34]
*105 io_out[35]
*106 io_out[36]
*107 io_out[37]
*108 io_out[3]
*109 io_out[4]
*110 io_out[5]
*111 io_out[6]
*112 io_out[7]
*113 io_out[8]
*114 io_out[9]
*115 la_data_in[0]
*116 la_data_in[10]
*117 la_data_in[11]
*118 la_data_in[12]
*119 la_data_in[13]
*120 la_data_in[14]
*121 la_data_in[15]
*122 la_data_in[16]
*123 la_data_in[17]
*124 la_data_in[18]
*125 la_data_in[19]
*126 la_data_in[1]
*127 la_data_in[20]
*128 la_data_in[21]
*129 la_data_in[22]
*130 la_data_in[23]
*131 la_data_in[24]
*132 la_data_in[25]
*133 la_data_in[26]
*134 la_data_in[27]
*135 la_data_in[28]
*136 la_data_in[29]
*137 la_data_in[2]
*138 la_data_in[30]
*139 la_data_in[31]
*140 la_data_in[32]
*141 la_data_in[33]
*142 la_data_in[34]
*143 la_data_in[35]
*144 la_data_in[36]
*145 la_data_in[37]
*146 la_data_in[38]
*147 la_data_in[39]
*148 la_data_in[3]
*149 la_data_in[40]
*150 la_data_in[41]
*151 la_data_in[42]
*152 la_data_in[43]
*153 la_data_in[44]
*154 la_data_in[45]
*155 la_data_in[46]
*156 la_data_in[47]
*157 la_data_in[48]
*158 la_data_in[49]
*159 la_data_in[4]
*160 la_data_in[50]
*161 la_data_in[51]
*162 la_data_in[52]
*163 la_data_in[53]
*164 la_data_in[54]
*165 la_data_in[55]
*166 la_data_in[56]
*167 la_data_in[57]
*168 la_data_in[58]
*169 la_data_in[59]
*170 la_data_in[5]
*171 la_data_in[60]
*172 la_data_in[61]
*173 la_data_in[62]
*174 la_data_in[63]
*175 la_data_in[6]
*176 la_data_in[7]
*177 la_data_in[8]
*178 la_data_in[9]
*179 la_data_out[0]
*180 la_data_out[10]
*181 la_data_out[11]
*182 la_data_out[12]
*183 la_data_out[13]
*184 la_data_out[14]
*185 la_data_out[15]
*186 la_data_out[16]
*187 la_data_out[17]
*188 la_data_out[18]
*189 la_data_out[19]
*190 la_data_out[1]
*191 la_data_out[20]
*192 la_data_out[21]
*193 la_data_out[22]
*194 la_data_out[23]
*195 la_data_out[24]
*196 la_data_out[25]
*197 la_data_out[26]
*198 la_data_out[27]
*199 la_data_out[28]
*200 la_data_out[29]
*201 la_data_out[2]
*202 la_data_out[30]
*203 la_data_out[31]
*204 la_data_out[32]
*205 la_data_out[33]
*206 la_data_out[34]
*207 la_data_out[35]
*208 la_data_out[36]
*209 la_data_out[37]
*210 la_data_out[38]
*211 la_data_out[39]
*212 la_data_out[3]
*213 la_data_out[40]
*214 la_data_out[41]
*215 la_data_out[42]
*216 la_data_out[43]
*217 la_data_out[44]
*218 la_data_out[45]
*219 la_data_out[46]
*220 la_data_out[47]
*221 la_data_out[48]
*222 la_data_out[49]
*223 la_data_out[4]
*224 la_data_out[50]
*225 la_data_out[51]
*226 la_data_out[52]
*227 la_data_out[53]
*228 la_data_out[54]
*229 la_data_out[55]
*230 la_data_out[56]
*231 la_data_out[57]
*232 la_data_out[58]
*233 la_data_out[59]
*234 la_data_out[5]
*235 la_data_out[60]
*236 la_data_out[61]
*237 la_data_out[62]
*238 la_data_out[63]
*239 la_data_out[6]
*240 la_data_out[7]
*241 la_data_out[8]
*242 la_data_out[9]
*243 la_oenb[0]
*244 la_oenb[10]
*245 la_oenb[11]
*246 la_oenb[12]
*247 la_oenb[13]
*248 la_oenb[14]
*249 la_oenb[15]
*250 la_oenb[16]
*251 la_oenb[17]
*252 la_oenb[18]
*253 la_oenb[19]
*254 la_oenb[1]
*255 la_oenb[20]
*256 la_oenb[21]
*257 la_oenb[22]
*258 la_oenb[23]
*259 la_oenb[24]
*260 la_oenb[25]
*261 la_oenb[26]
*262 la_oenb[27]
*263 la_oenb[28]
*264 la_oenb[29]
*265 la_oenb[2]
*266 la_oenb[30]
*267 la_oenb[31]
*268 la_oenb[32]
*269 la_oenb[33]
*270 la_oenb[34]
*271 la_oenb[35]
*272 la_oenb[36]
*273 la_oenb[37]
*274 la_oenb[38]
*275 la_oenb[39]
*276 la_oenb[3]
*277 la_oenb[40]
*278 la_oenb[41]
*279 la_oenb[42]
*280 la_oenb[43]
*281 la_oenb[44]
*282 la_oenb[45]
*283 la_oenb[46]
*284 la_oenb[47]
*285 la_oenb[48]
*286 la_oenb[49]
*287 la_oenb[4]
*288 la_oenb[50]
*289 la_oenb[51]
*290 la_oenb[52]
*291 la_oenb[53]
*292 la_oenb[54]
*293 la_oenb[55]
*294 la_oenb[56]
*295 la_oenb[57]
*296 la_oenb[58]
*297 la_oenb[59]
*298 la_oenb[5]
*299 la_oenb[60]
*300 la_oenb[61]
*301 la_oenb[62]
*302 la_oenb[63]
*303 la_oenb[6]
*304 la_oenb[7]
*305 la_oenb[8]
*306 la_oenb[9]
*307 user_clock2
*308 user_irq[0]
*309 user_irq[1]
*310 user_irq[2]
*313 wb_clk_i
*314 wb_rst_i
*315 wbs_ack_o
*316 wbs_adr_i[0]
*317 wbs_adr_i[10]
*318 wbs_adr_i[11]
*319 wbs_adr_i[12]
*320 wbs_adr_i[13]
*321 wbs_adr_i[14]
*322 wbs_adr_i[15]
*323 wbs_adr_i[16]
*324 wbs_adr_i[17]
*325 wbs_adr_i[18]
*326 wbs_adr_i[19]
*327 wbs_adr_i[1]
*328 wbs_adr_i[20]
*329 wbs_adr_i[21]
*330 wbs_adr_i[22]
*331 wbs_adr_i[23]
*332 wbs_adr_i[24]
*333 wbs_adr_i[25]
*334 wbs_adr_i[26]
*335 wbs_adr_i[27]
*336 wbs_adr_i[28]
*337 wbs_adr_i[29]
*338 wbs_adr_i[2]
*339 wbs_adr_i[30]
*340 wbs_adr_i[31]
*341 wbs_adr_i[3]
*342 wbs_adr_i[4]
*343 wbs_adr_i[5]
*344 wbs_adr_i[6]
*345 wbs_adr_i[7]
*346 wbs_adr_i[8]
*347 wbs_adr_i[9]
*348 wbs_cyc_i
*349 wbs_dat_i[0]
*350 wbs_dat_i[10]
*351 wbs_dat_i[11]
*352 wbs_dat_i[12]
*353 wbs_dat_i[13]
*354 wbs_dat_i[14]
*355 wbs_dat_i[15]
*356 wbs_dat_i[16]
*357 wbs_dat_i[17]
*358 wbs_dat_i[18]
*359 wbs_dat_i[19]
*360 wbs_dat_i[1]
*361 wbs_dat_i[20]
*362 wbs_dat_i[21]
*363 wbs_dat_i[22]
*364 wbs_dat_i[23]
*365 wbs_dat_i[24]
*366 wbs_dat_i[25]
*367 wbs_dat_i[26]
*368 wbs_dat_i[27]
*369 wbs_dat_i[28]
*370 wbs_dat_i[29]
*371 wbs_dat_i[2]
*372 wbs_dat_i[30]
*373 wbs_dat_i[31]
*374 wbs_dat_i[3]
*375 wbs_dat_i[4]
*376 wbs_dat_i[5]
*377 wbs_dat_i[6]
*378 wbs_dat_i[7]
*379 wbs_dat_i[8]
*380 wbs_dat_i[9]
*381 wbs_dat_o[0]
*382 wbs_dat_o[10]
*383 wbs_dat_o[11]
*384 wbs_dat_o[12]
*385 wbs_dat_o[13]
*386 wbs_dat_o[14]
*387 wbs_dat_o[15]
*388 wbs_dat_o[16]
*389 wbs_dat_o[17]
*390 wbs_dat_o[18]
*391 wbs_dat_o[19]
*392 wbs_dat_o[1]
*393 wbs_dat_o[20]
*394 wbs_dat_o[21]
*395 wbs_dat_o[22]
*396 wbs_dat_o[23]
*397 wbs_dat_o[24]
*398 wbs_dat_o[25]
*399 wbs_dat_o[26]
*400 wbs_dat_o[27]
*401 wbs_dat_o[28]
*402 wbs_dat_o[29]
*403 wbs_dat_o[2]
*404 wbs_dat_o[30]
*405 wbs_dat_o[31]
*406 wbs_dat_o[3]
*407 wbs_dat_o[4]
*408 wbs_dat_o[5]
*409 wbs_dat_o[6]
*410 wbs_dat_o[7]
*411 wbs_dat_o[8]
*412 wbs_dat_o[9]
*413 wbs_sel_i[0]
*414 wbs_sel_i[1]
*415 wbs_sel_i[2]
*416 wbs_sel_i[3]
*417 wbs_stb_i
*418 wbs_we_i
*419 mprj

*PORTS
io_in[0] I
io_in[10] I
io_in[11] I
io_in[12] I
io_in[13] I
io_in[14] I
io_in[15] I
io_in[16] I
io_in[17] I
io_in[18] I
io_in[19] I
io_in[1] I
io_in[20] I
io_in[21] I
io_in[22] I
io_in[23] I
io_in[24] I
io_in[25] I
io_in[26] I
io_in[27] I
io_in[28] I
io_in[29] I
io_in[2] I
io_in[30] I
io_in[31] I
io_in[32] I
io_in[33] I
io_in[34] I
io_in[35] I
io_in[36] I
io_in[37] I
io_in[3] I
io_in[4] I
io_in[5] I
io_in[6] I
io_in[7] I
io_in[8] I
io_in[9] I
io_oeb[0] O
io_oeb[10] O
io_oeb[11] O
io_oeb[12] O
io_oeb[13] O
io_oeb[14] O
io_oeb[15] O
io_oeb[16] O
io_oeb[17] O
io_oeb[18] O
io_oeb[19] O
io_oeb[1] O
io_oeb[20] O
io_oeb[21] O
io_oeb[22] O
io_oeb[23] O
io_oeb[24] O
io_oeb[25] O
io_oeb[26] O
io_oeb[27] O
io_oeb[28] O
io_oeb[29] O
io_oeb[2] O
io_oeb[30] O
io_oeb[31] O
io_oeb[32] O
io_oeb[33] O
io_oeb[34] O
io_oeb[35] O
io_oeb[36] O
io_oeb[37] O
io_oeb[3] O
io_oeb[4] O
io_oeb[5] O
io_oeb[6] O
io_oeb[7] O
io_oeb[8] O
io_oeb[9] O
io_out[0] O
io_out[10] O
io_out[11] O
io_out[12] O
io_out[13] O
io_out[14] O
io_out[15] O
io_out[16] O
io_out[17] O
io_out[18] O
io_out[19] O
io_out[1] O
io_out[20] O
io_out[21] O
io_out[22] O
io_out[23] O
io_out[24] O
io_out[25] O
io_out[26] O
io_out[27] O
io_out[28] O
io_out[29] O
io_out[2] O
io_out[30] O
io_out[31] O
io_out[32] O
io_out[33] O
io_out[34] O
io_out[35] O
io_out[36] O
io_out[37] O
io_out[3] O
io_out[4] O
io_out[5] O
io_out[6] O
io_out[7] O
io_out[8] O
io_out[9] O
la_data_in[0] I
la_data_in[10] I
la_data_in[11] I
la_data_in[12] I
la_data_in[13] I
la_data_in[14] I
la_data_in[15] I
la_data_in[16] I
la_data_in[17] I
la_data_in[18] I
la_data_in[19] I
la_data_in[1] I
la_data_in[20] I
la_data_in[21] I
la_data_in[22] I
la_data_in[23] I
la_data_in[24] I
la_data_in[25] I
la_data_in[26] I
la_data_in[27] I
la_data_in[28] I
la_data_in[29] I
la_data_in[2] I
la_data_in[30] I
la_data_in[31] I
la_data_in[32] I
la_data_in[33] I
la_data_in[34] I
la_data_in[35] I
la_data_in[36] I
la_data_in[37] I
la_data_in[38] I
la_data_in[39] I
la_data_in[3] I
la_data_in[40] I
la_data_in[41] I
la_data_in[42] I
la_data_in[43] I
la_data_in[44] I
la_data_in[45] I
la_data_in[46] I
la_data_in[47] I
la_data_in[48] I
la_data_in[49] I
la_data_in[4] I
la_data_in[50] I
la_data_in[51] I
la_data_in[52] I
la_data_in[53] I
la_data_in[54] I
la_data_in[55] I
la_data_in[56] I
la_data_in[57] I
la_data_in[58] I
la_data_in[59] I
la_data_in[5] I
la_data_in[60] I
la_data_in[61] I
la_data_in[62] I
la_data_in[63] I
la_data_in[6] I
la_data_in[7] I
la_data_in[8] I
la_data_in[9] I
la_data_out[0] O
la_data_out[10] O
la_data_out[11] O
la_data_out[12] O
la_data_out[13] O
la_data_out[14] O
la_data_out[15] O
la_data_out[16] O
la_data_out[17] O
la_data_out[18] O
la_data_out[19] O
la_data_out[1] O
la_data_out[20] O
la_data_out[21] O
la_data_out[22] O
la_data_out[23] O
la_data_out[24] O
la_data_out[25] O
la_data_out[26] O
la_data_out[27] O
la_data_out[28] O
la_data_out[29] O
la_data_out[2] O
la_data_out[30] O
la_data_out[31] O
la_data_out[32] O
la_data_out[33] O
la_data_out[34] O
la_data_out[35] O
la_data_out[36] O
la_data_out[37] O
la_data_out[38] O
la_data_out[39] O
la_data_out[3] O
la_data_out[40] O
la_data_out[41] O
la_data_out[42] O
la_data_out[43] O
la_data_out[44] O
la_data_out[45] O
la_data_out[46] O
la_data_out[47] O
la_data_out[48] O
la_data_out[49] O
la_data_out[4] O
la_data_out[50] O
la_data_out[51] O
la_data_out[52] O
la_data_out[53] O
la_data_out[54] O
la_data_out[55] O
la_data_out[56] O
la_data_out[57] O
la_data_out[58] O
la_data_out[59] O
la_data_out[5] O
la_data_out[60] O
la_data_out[61] O
la_data_out[62] O
la_data_out[63] O
la_data_out[6] O
la_data_out[7] O
la_data_out[8] O
la_data_out[9] O
la_oenb[0] I
la_oenb[10] I
la_oenb[11] I
la_oenb[12] I
la_oenb[13] I
la_oenb[14] I
la_oenb[15] I
la_oenb[16] I
la_oenb[17] I
la_oenb[18] I
la_oenb[19] I
la_oenb[1] I
la_oenb[20] I
la_oenb[21] I
la_oenb[22] I
la_oenb[23] I
la_oenb[24] I
la_oenb[25] I
la_oenb[26] I
la_oenb[27] I
la_oenb[28] I
la_oenb[29] I
la_oenb[2] I
la_oenb[30] I
la_oenb[31] I
la_oenb[32] I
la_oenb[33] I
la_oenb[34] I
la_oenb[35] I
la_oenb[36] I
la_oenb[37] I
la_oenb[38] I
la_oenb[39] I
la_oenb[3] I
la_oenb[40] I
la_oenb[41] I
la_oenb[42] I
la_oenb[43] I
la_oenb[44] I
la_oenb[45] I
la_oenb[46] I
la_oenb[47] I
la_oenb[48] I
la_oenb[49] I
la_oenb[4] I
la_oenb[50] I
la_oenb[51] I
la_oenb[52] I
la_oenb[53] I
la_oenb[54] I
la_oenb[55] I
la_oenb[56] I
la_oenb[57] I
la_oenb[58] I
la_oenb[59] I
la_oenb[5] I
la_oenb[60] I
la_oenb[61] I
la_oenb[62] I
la_oenb[63] I
la_oenb[6] I
la_oenb[7] I
la_oenb[8] I
la_oenb[9] I
user_clock2 I
user_irq[0] O
user_irq[1] O
user_irq[2] O
wb_clk_i I
wb_rst_i I
wbs_ack_o O
wbs_adr_i[0] I
wbs_adr_i[10] I
wbs_adr_i[11] I
wbs_adr_i[12] I
wbs_adr_i[13] I
wbs_adr_i[14] I
wbs_adr_i[15] I
wbs_adr_i[16] I
wbs_adr_i[17] I
wbs_adr_i[18] I
wbs_adr_i[19] I
wbs_adr_i[1] I
wbs_adr_i[20] I
wbs_adr_i[21] I
wbs_adr_i[22] I
wbs_adr_i[23] I
wbs_adr_i[24] I
wbs_adr_i[25] I
wbs_adr_i[26] I
wbs_adr_i[27] I
wbs_adr_i[28] I
wbs_adr_i[29] I
wbs_adr_i[2] I
wbs_adr_i[30] I
wbs_adr_i[31] I
wbs_adr_i[3] I
wbs_adr_i[4] I
wbs_adr_i[5] I
wbs_adr_i[6] I
wbs_adr_i[7] I
wbs_adr_i[8] I
wbs_adr_i[9] I
wbs_cyc_i I
wbs_dat_i[0] I
wbs_dat_i[10] I
wbs_dat_i[11] I
wbs_dat_i[12] I
wbs_dat_i[13] I
wbs_dat_i[14] I
wbs_dat_i[15] I
wbs_dat_i[16] I
wbs_dat_i[17] I
wbs_dat_i[18] I
wbs_dat_i[19] I
wbs_dat_i[1] I
wbs_dat_i[20] I
wbs_dat_i[21] I
wbs_dat_i[22] I
wbs_dat_i[23] I
wbs_dat_i[24] I
wbs_dat_i[25] I
wbs_dat_i[26] I
wbs_dat_i[27] I
wbs_dat_i[28] I
wbs_dat_i[29] I
wbs_dat_i[2] I
wbs_dat_i[30] I
wbs_dat_i[31] I
wbs_dat_i[3] I
wbs_dat_i[4] I
wbs_dat_i[5] I
wbs_dat_i[6] I
wbs_dat_i[7] I
wbs_dat_i[8] I
wbs_dat_i[9] I
wbs_dat_o[0] O
wbs_dat_o[10] O
wbs_dat_o[11] O
wbs_dat_o[12] O
wbs_dat_o[13] O
wbs_dat_o[14] O
wbs_dat_o[15] O
wbs_dat_o[16] O
wbs_dat_o[17] O
wbs_dat_o[18] O
wbs_dat_o[19] O
wbs_dat_o[1] O
wbs_dat_o[20] O
wbs_dat_o[21] O
wbs_dat_o[22] O
wbs_dat_o[23] O
wbs_dat_o[24] O
wbs_dat_o[25] O
wbs_dat_o[26] O
wbs_dat_o[27] O
wbs_dat_o[28] O
wbs_dat_o[29] O
wbs_dat_o[2] O
wbs_dat_o[30] O
wbs_dat_o[31] O
wbs_dat_o[3] O
wbs_dat_o[4] O
wbs_dat_o[5] O
wbs_dat_o[6] O
wbs_dat_o[7] O
wbs_dat_o[8] O
wbs_dat_o[9] O
wbs_sel_i[0] I
wbs_sel_i[1] I
wbs_sel_i[2] I
wbs_sel_i[3] I
wbs_stb_i I
wbs_we_i I

*D_NET *1 0.419627
*CONN
*P io_in[0] I
*I *419:io_in[0] I *D user_proj_example
*CAP
1 io_in[0] 0.0625814
2 *419:io_in[0] 0.000102358
3 *1:8 0.0908831
4 *1:7 0.0907807
5 *1:5 0.0625814
6 *1:5 *69:12 0.111405
7 *1:5 *172:8 0
8 *1:5 *184:16 0.00129308
9 *1:5 *238:16 0
10 *1:5 *244:10 0
*RES
1 io_in[0] *1:5 583.065 
2 *1:5 *1:7 4.5 
3 *1:7 *1:8 724.23 
4 *1:8 *419:io_in[0] 9.765 
*END

*D_NET *2 0.381298
*CONN
*P io_in[10] I
*I *419:io_in[10] I *D user_proj_example
*CAP
1 io_in[10] 0.000376951
2 *419:io_in[10] 0
3 *2:21 0.0009763
4 *2:19 0.00195263
5 *2:11 0.0201248
6 *2:10 0.0191485
7 *2:8 0.000634686
8 *2:7 0.00101164
9 *2:8 *38:8 0.0312897
10 *2:8 *50:32 0.000160276
11 *2:8 *72:17 0.0300284
12 *2:11 *38:11 0
13 *2:11 *50:27 0.000310888
14 *2:11 *50:29 0.127264
15 *2:11 *75:5 0.0147537
16 *2:19 *3:19 0.0010989
17 *2:19 *50:24 0.00351371
18 *2:19 *50:27 0.00247159
19 *2:19 *66:11 0
20 *2:19 *75:5 0.000780464
21 *2:19 *104:11 3.8978e-05
22 *2:21 *50:9 0.0597066
23 *2:21 *50:24 0.00105944
24 *2:21 *75:5 0.0645959
*RES
1 io_in[10] *2:7 6.345 
2 *2:7 *2:8 81.27 
3 *2:8 *2:10 4.5 
4 *2:10 *2:11 322.83 
5 *2:11 *2:19 32.31 
6 *2:19 *2:21 161.73 
7 *2:21 *419:io_in[10] 4.5 
*END

*D_NET *3 0.178827
*CONN
*P io_in[11] I
*I *419:io_in[11] I *D user_proj_example
*CAP
1 io_in[11] 0.000493126
2 *419:io_in[11] 0.000282004
3 *3:19 0.0078863
4 *3:18 0.00998113
5 *3:13 0.0402864
6 *3:11 0.0384026
7 *3:19 *22:11 0.00982758
8 *3:19 *38:11 0.0130562
9 *3:19 *50:9 0.000191757
10 *3:19 *50:24 0.00187899
11 *3:19 *50:27 0.00122056
12 *3:19 *50:29 0.000786798
13 *3:19 *97:9 0.0534351
14 *2:19 *3:19 0.0010989
*RES
1 io_in[11] *3:11 2.655 
2 *3:11 *3:13 295.47 
3 *3:13 *3:18 27.09 
4 *3:18 *3:19 205.29 
5 *3:19 *419:io_in[11] 15.21 
*END

*D_NET *4 0.155619
*CONN
*P io_in[12] I
*I *419:io_in[12] I *D user_proj_example
*CAP
1 io_in[12] 0.00314283
2 *419:io_in[12] 0.00125657
3 *4:11 0.0582325
4 *4:10 0.0601188
5 *4:10 *5:8 0.000440019
6 *4:10 *6:8 0.0128101
7 *4:10 *72:17 0.000233037
8 *4:11 *419:io_in[18] 0.000334296
9 *4:11 *419:io_in[20] 0.00047795
10 *4:11 *43:10 0.000218958
11 *4:11 *55:10 0.00787575
12 *4:11 *58:8 0.00718172
13 *4:11 *63:8 0
14 *4:11 *76:8 0.00303977
15 *4:11 *80:10 0.00025688
16 *4:11 *114:8 0
*RES
1 io_in[12] *4:10 49.455 
2 *4:10 *4:11 490.77 
3 *4:11 *419:io_in[12] 12.465 
*END

*D_NET *5 0.23088
*CONN
*P io_in[13] I
*I *419:io_in[13] I *D user_proj_example
*CAP
1 io_in[13] 0.000408657
2 *419:io_in[13] 0.00166313
3 *5:11 0.0568159
4 *5:10 0.0551527
5 *5:8 0.00128432
6 *5:7 0.00169298
7 *419:io_in[13] *80:11 8.82612e-05
8 *5:8 *6:8 0.0380766
9 *5:8 *44:17 0.0306612
10 *5:8 *72:17 0.00070839
11 *5:11 *48:8 0.0128574
12 *5:11 *54:8 0.0310305
13 *5:11 *60:8 0
14 *5:11 *114:8 0
15 *4:10 *5:8 0.000440019
*RES
1 io_in[13] *5:7 6.525 
2 *5:7 *5:8 99.45 
3 *5:8 *5:10 4.5 
4 *5:10 *5:11 483.57 
5 *5:11 *419:io_in[13] 15.345 
*END

*D_NET *6 0.218707
*CONN
*P io_in[14] I
*I *419:io_in[14] I *D user_proj_example
*CAP
1 io_in[14] 0.000430215
2 *419:io_in[14] 0.00204313
3 *6:11 0.060584
4 *6:10 0.0585408
5 *6:8 0.00905761
6 *6:7 0.00948783
7 *419:io_in[14] *44:13 0
8 *419:io_in[14] *81:11 3.17208e-05
9 *6:8 *44:17 0.0113806
10 *6:11 *49:8 0.0160457
11 *6:11 *60:8 0
12 *6:11 *72:14 0
13 *6:11 *86:10 0.000219071
14 *4:10 *6:8 0.0128101
15 *5:8 *6:8 0.0380766
*RES
1 io_in[14] *6:7 6.705 
2 *6:7 *6:8 161.19 
3 *6:8 *6:10 4.5 
4 *6:10 *6:11 475.83 
5 *6:11 *419:io_in[14] 17.865 
*END

*D_NET *7 0.316012
*CONN
*P io_in[15] I
*I *419:io_in[15] I *D user_proj_example
*CAP
1 io_in[15] 0.000300343
2 *419:io_in[15] 0.00248505
3 *7:11 0.0295508
4 *7:10 0.0270658
5 *7:8 0.0284195
6 *7:7 0.0287199
7 *7:8 *9:8 0.0285244
8 *7:8 *16:8 0.0234362
9 *7:8 *17:11 0.000433484
10 *7:8 *45:14 0.143375
11 *7:11 *57:15 0.0037009
*RES
1 io_in[15] *7:7 6.525 
2 *7:7 *7:8 453.87 
3 *7:8 *7:10 4.5 
4 *7:10 *7:11 211.14 
5 *7:11 *419:io_in[15] 16.695 
*END

*D_NET *8 0.191865
*CONN
*P io_in[16] I
*I *419:io_in[16] I *D user_proj_example
*CAP
1 io_in[16] 0.000200293
2 *419:io_in[16] 0.00132567
3 *8:11 0.0304647
4 *8:10 0.029139
5 *8:8 0.0341407
6 *8:7 0.034341
7 *419:io_in[16] *20:13 0.00103596
8 *419:io_in[16] *46:9 0
9 *419:io_in[16] *94:8 8.81427e-05
10 *8:8 *14:16 0.0127663
11 *8:8 *15:8 0.0167658
12 *8:8 *17:11 0.00248689
13 *8:8 *45:14 0.027141
14 *8:8 *92:14 0.00196936
15 *8:11 *46:9 0
*RES
1 io_in[16] *8:7 5.805 
2 *8:7 *8:8 334.89 
3 *8:8 *8:10 4.5 
4 *8:10 *8:11 220.05 
5 *8:11 *419:io_in[16] 18.315 
*END

*D_NET *9 0.151321
*CONN
*P io_in[17] I
*I *419:io_in[17] I *D user_proj_example
*CAP
1 io_in[17] 0.000420502
2 *419:io_in[17] 9.76714e-05
3 *9:11 0.0300902
4 *9:10 0.0299925
5 *9:8 0.0221993
6 *9:7 0.0226198
7 *9:8 *16:8 0.0173765
8 *9:11 *84:10 0
9 *7:8 *9:8 0.0285244
*RES
1 io_in[17] *9:7 6.885 
2 *9:7 *9:8 223.83 
3 *9:8 *9:10 4.5 
4 *9:10 *9:11 225.45 
5 *9:11 *419:io_in[17] 0.765 
*END

*D_NET *10 0.108335
*CONN
*P io_in[18] I
*I *419:io_in[18] I *D user_proj_example
*CAP
1 io_in[18] 0.000922307
2 *419:io_in[18] 0.00130507
3 *10:11 0.0296448
4 *10:10 0.0283397
5 *10:8 0.00940578
6 *10:7 0.0103281
7 *419:io_in[18] *58:8 0.00153908
8 *419:io_in[18] *84:13 0
9 *419:io_in[18] *85:13 6.99741e-06
10 *10:8 *13:8 0.002208
11 *10:8 *86:14 0.0243014
12 *10:11 *11:19 0
13 *10:11 *48:8 0
14 *10:11 *86:10 0
15 *4:11 *419:io_in[18] 0.000334296
*RES
1 io_in[18] *10:7 10.845 
2 *10:7 *10:8 104.85 
3 *10:8 *10:10 4.5 
4 *10:10 *10:11 214.29 
5 *10:11 *419:io_in[18] 20.115 
*END

*D_NET *11 0.0635752
*CONN
*P io_in[19] I
*I *419:io_in[19] I *D user_proj_example
*CAP
1 io_in[19] 0.000303963
2 *419:io_in[19] 0.00256328
3 *11:19 0.0148192
4 *11:18 0.0129778
5 *11:13 0.0166645
6 *11:11 0.0162465
7 *419:io_in[19] *86:10 0
8 *10:11 *11:19 0
*RES
1 io_in[19] *11:11 2.475 
2 *11:11 *11:13 121.23 
3 *11:13 *11:18 14.67 
4 *11:18 *11:19 91.98 
5 *11:19 *419:io_in[19] 17.055 
*END

*D_NET *12 0.320847
*CONN
*P io_in[1] I
*I *419:io_in[1] I *D user_proj_example
*CAP
1 io_in[1] 0.000493126
2 *419:io_in[1] 0.000188658
3 *12:16 0.083165
4 *12:15 0.0829764
5 *12:13 0.0767563
6 *12:11 0.0772494
7 *419:io_in[1] *22:11 1.79557e-05
8 *12:13 *404:10 0
*RES
1 io_in[1] *12:11 2.655 
2 *12:11 *12:13 575.01 
3 *12:13 *12:15 4.5 
4 *12:15 *12:16 662.31 
5 *12:16 *419:io_in[1] 10.395 
*END

*D_NET *13 0.0952386
*CONN
*P io_in[20] I
*I *419:io_in[20] I *D user_proj_example
*CAP
1 io_in[20] 0.00096163
2 *419:io_in[20] 0.00143809
3 *13:11 0.0295857
4 *13:10 0.0281476
5 *13:8 0.0143863
6 *13:7 0.015348
7 *419:io_in[20] *51:13 0
8 *419:io_in[20] *58:8 0.00234435
9 *13:11 *49:7 0.000341054
10 *13:11 *87:13 0
11 *4:11 *419:io_in[20] 0.00047795
12 *10:8 *13:8 0.002208
*RES
1 io_in[20] *13:7 11.025 
2 *13:7 *13:8 114.21 
3 *13:8 *13:10 4.5 
4 *13:10 *13:11 214.11 
5 *13:11 *419:io_in[20] 22.275 
*END

*D_NET *14 0.202612
*CONN
*P io_in[21] I
*I *419:io_in[21] I *D user_proj_example
*CAP
1 io_in[21] 0.000381849
2 *419:io_in[21] 0.000166616
3 *14:19 0.0303729
4 *14:18 0.0302063
5 *14:16 0.00198901
6 *14:15 0.00237086
7 *14:16 *15:8 0.036678
8 *14:16 *92:14 0.08768
9 *14:19 *89:10 0
10 *8:8 *14:16 0.0127663
*RES
1 io_in[21] *14:15 7.425 
2 *14:15 *14:16 232.29 
3 *14:16 *14:18 4.5 
4 *14:18 *14:19 226.71 
5 *14:19 *419:io_in[21] 1.305 
*END

*D_NET *15 0.274547
*CONN
*P io_in[22] I
*I *419:io_in[22] I *D user_proj_example
*CAP
1 io_in[22] 0.000239234
2 *419:io_in[22] 9.76714e-05
3 *15:11 0.0301988
4 *15:10 0.0301011
5 *15:8 0.00373223
6 *15:7 0.00397146
7 *15:8 *17:11 0.139264
8 *15:8 *92:14 0.0134985
9 *15:11 *55:11 0
10 *8:8 *15:8 0.0167658
11 *14:16 *15:8 0.036678
*RES
1 io_in[22] *15:7 5.985 
2 *15:7 *15:8 348.57 
3 *15:8 *15:10 4.5 
4 *15:10 *15:11 226.35 
5 *15:11 *419:io_in[22] 0.765 
*END

*D_NET *16 0.237957
*CONN
*P io_in[23] I
*I *419:io_in[23] I *D user_proj_example
*CAP
1 io_in[23] 0.000355247
2 *419:io_in[23] 0.00227798
3 *16:11 0.0299338
4 *16:10 0.0276558
5 *16:8 0.0488001
6 *16:7 0.0491554
7 *16:8 *17:11 0.0389661
8 *7:8 *16:8 0.0234362
9 *9:8 *16:8 0.0173765
*RES
1 io_in[23] *16:7 6.705 
2 *16:7 *16:8 463.41 
3 *16:8 *16:10 4.5 
4 *16:10 *16:11 210.96 
5 *16:11 *419:io_in[23] 14.985 
*END

*D_NET *17 0.341667
*CONN
*P io_in[24] I
*I *419:io_in[24] I *D user_proj_example
*CAP
1 io_in[24] 0.00254523
2 *419:io_in[24] 0.00258856
3 *17:14 0.0303518
4 *17:13 0.0277633
5 *17:11 0.0287759
6 *17:10 0.0313211
7 *419:io_in[24] *92:10 0
8 *17:11 *45:14 0.0244913
9 *17:11 *92:14 0.0126788
10 *7:8 *17:11 0.000433484
11 *8:8 *17:11 0.00248689
12 *15:8 *17:11 0.139264
13 *16:8 *17:11 0.0389661
*RES
1 io_in[24] *17:10 27.675 
2 *17:10 *17:11 551.25 
3 *17:11 *17:13 4.5 
4 *17:13 *17:14 211.5 
5 *17:14 *419:io_in[24] 17.055 
*END

*D_NET *18 0.186031
*CONN
*P io_in[25] I
*I *419:io_in[25] I *D user_proj_example
*CAP
1 io_in[25] 0.00380757
2 *419:io_in[25] 0.00265984
3 *18:19 0.072515
4 *18:18 0.0698552
5 *18:16 0.0166929
6 *18:15 0.0205005
7 *18:19 *72:14 0
8 *18:19 *78:14 0
*RES
1 io_in[25] *18:15 31.905 
2 *18:15 *18:16 128.43 
3 *18:16 *18:18 4.5 
4 *18:18 *18:19 541.53 
5 *18:19 *419:io_in[25] 22.635 
*END

*D_NET *19 0.169601
*CONN
*P io_in[26] I
*I *419:io_in[26] I *D user_proj_example
*CAP
1 io_in[26] 0.00325637
2 *419:io_in[26] 0.00292555
3 *19:19 0.0739712
4 *19:18 0.0710457
5 *19:16 0.00757267
6 *19:15 0.010829
7 *419:io_in[26] *94:7 0
8 *19:19 *78:14 0
9 *19:19 *109:14 0
*RES
1 io_in[26] *19:15 28.125 
2 *19:15 *19:16 58.23 
3 *19:16 *19:18 4.5 
4 *19:18 *19:19 552.33 
5 *19:19 *419:io_in[26] 24.615 
*END

*D_NET *20 0.208682
*CONN
*P io_in[27] I
*I *419:io_in[27] I *D user_proj_example
*CAP
1 io_in[27] 0.000546072
2 *419:io_in[27] 0.00101584
3 *20:13 0.0696059
4 *20:11 0.0691361
5 *20:13 *58:8 0.0126808
6 *20:13 *76:8 0.0501162
7 *20:13 *84:10 0.000454138
8 *20:13 *85:10 0.00137523
9 *20:13 *89:10 0.00107487
10 *20:13 *92:10 0.000865665
11 *20:13 *94:8 0
12 *20:13 *95:8 0
13 *20:13 *109:13 0.000775545
14 *419:io_in[16] *20:13 0.00103596
*RES
1 io_in[27] *20:11 2.835 
2 *20:11 *20:13 583.47 
3 *20:13 *419:io_in[27] 11.205 
*END

*D_NET *21 0.286228
*CONN
*P io_in[28] I
*I *419:io_in[28] I *D user_proj_example
*CAP
1 io_in[28] 0.000912206
2 *419:io_in[28] 0.000217557
3 *21:11 0.0485865
4 *21:10 0.0483689
5 *21:8 0.00793335
6 *21:7 0.00884556
7 *21:11 *24:19 0.117516
8 *21:11 *77:10 0.00498716
9 *21:11 *79:8 0.0488606
*RES
1 io_in[28] *21:7 10.665 
2 *21:7 *21:8 60.93 
3 *21:8 *21:10 4.5 
4 *21:10 *21:11 584.91 
5 *21:11 *419:io_in[28] 5.985 
*END

*D_NET *22 0.255858
*CONN
*P io_in[29] I
*I *419:io_in[29] I *D user_proj_example
*CAP
1 io_in[29] 0.00166061
2 *419:io_in[29] 0.000160295
3 *22:11 0.0616854
4 *22:10 0.0615251
5 *22:8 0.0164791
6 *22:7 0.0181397
7 *22:11 *26:11 0
8 *22:11 *50:7 0.000205389
9 *22:11 *50:9 0.082819
10 *22:11 *97:9 0.00333827
11 *419:io_in[1] *22:11 1.79557e-05
12 *3:19 *22:11 0.00982758
*RES
1 io_in[29] *22:7 16.065 
2 *22:7 *22:8 126.63 
3 *22:8 *22:10 4.5 
4 *22:10 *22:11 587.07 
5 *22:11 *419:io_in[29] 14.31 
*END

*D_NET *23 0.305544
*CONN
*P io_in[2] I
*I *419:io_in[2] I *D user_proj_example
*CAP
1 io_in[2] 0.000377609
2 *419:io_in[2] 0.000224254
3 *23:16 0.0765868
4 *23:15 0.0763625
5 *23:13 0.0757591
6 *23:11 0.0761367
7 *419:io_in[2] *50:9 9.66582e-05
*RES
1 io_in[2] *23:11 2.115 
2 *23:11 *23:13 566.91 
3 *23:13 *23:15 4.5 
4 *23:15 *23:16 597.51 
5 *23:16 *419:io_in[2] 10.935 
*END

*D_NET *24 0.354509
*CONN
*P io_in[30] I
*I *419:io_in[30] I *D user_proj_example
*CAP
1 io_in[30] 0.000416115
2 *419:io_in[30] 0.000240538
3 *24:19 0.00683876
4 *24:18 0.00659822
5 *24:16 0.0260583
6 *24:15 0.0260583
7 *24:13 0.0365581
8 *24:11 0.0369742
9 *24:13 *314:8 0
10 *24:13 *324:8 0.00285529
11 *24:13 *409:12 0
12 *24:13 *417:22 0
13 *24:16 *417:19 0.000289211
14 *24:19 *40:8 0.00236717
15 *24:19 *59:8 0.0874037
16 *24:19 *79:8 0.00137448
17 *24:19 *79:12 0.00296059
18 *21:11 *24:19 0.117516
*RES
1 io_in[30] *24:11 2.295 
2 *24:11 *24:13 295.47 
3 *24:13 *24:15 4.5 
4 *24:15 *24:16 200.25 
5 *24:16 *24:18 4.5 
6 *24:18 *24:19 310.77 
7 *24:19 *419:io_in[30] 6.165 
*END

*D_NET *25 0.236021
*CONN
*P io_in[31] I
*I *419:io_in[31] I *D user_proj_example
*CAP
1 io_in[31] 0.000178104
2 *419:io_in[31] 0.00017706
3 *25:16 0.0341636
4 *25:15 0.0339866
5 *25:13 0.0820507
6 *25:11 0.0822288
7 *419:io_in[31] *75:5 0.000100669
8 *25:13 *283:14 0
9 *25:13 *358:14 0
10 *25:16 *285:17 0.00313581
*RES
1 io_in[31] *25:11 1.215 
2 *25:11 *25:13 612.45 
3 *25:13 *25:15 4.5 
4 *25:15 *25:16 265.41 
5 *25:16 *419:io_in[31] 10.395 
*END

*D_NET *26 0.326287
*CONN
*P io_in[32] I
*I *419:io_in[32] I *D user_proj_example
*CAP
1 io_in[32] 0.00240901
2 *419:io_in[32] 0.000500715
3 *26:11 0.0777853
4 *26:10 0.0772846
5 *26:8 0.0430295
6 *26:7 0.0454385
7 *419:io_in[32] *50:24 1.34684e-05
8 *26:8 *313:13 0
9 *26:11 *38:11 0.06552
10 *26:11 *97:9 0.0143064
11 *22:11 *26:11 0
*RES
1 io_in[32] *26:7 21.465 
2 *26:7 *26:8 330.93 
3 *26:8 *26:10 4.5 
4 *26:10 *26:11 603.63 
5 *26:11 *419:io_in[32] 16.515 
*END

*D_NET *27 0.343082
*CONN
*P io_in[33] I
*I *419:io_in[33] I *D user_proj_example
*CAP
1 io_in[33] 0.000298779
2 *419:io_in[33] 6.00164e-06
3 *27:16 0.0518029
4 *27:15 0.0517969
5 *27:13 0.0705007
6 *27:11 0.0707995
7 *419:io_in[33] *50:24 0.000100669
8 *419:io_in[33] *75:5 0.000100669
9 *27:13 *34:5 0.0830903
10 *27:16 *139:13 0.0132695
11 *27:16 *229:15 0.00131572
*RES
1 io_in[33] *27:11 1.755 
2 *27:11 *27:13 628.65 
3 *27:13 *27:15 4.5 
4 *27:15 *27:16 402.75 
5 *27:16 *419:io_in[33] 9.27 
*END

*D_NET *28 0.295008
*CONN
*P io_in[34] I
*I *419:io_in[34] I *D user_proj_example
*CAP
1 io_in[34] 0.0847389
2 *419:io_in[34] 0.000241794
3 *28:8 0.0601265
4 *28:7 0.0598847
5 *28:5 0.0847389
6 *419:io_in[34] *75:5 0.000538061
7 *28:8 *65:11 0
8 *28:8 *294:19 0.0047386
*RES
1 io_in[34] *28:5 634.005 
2 *28:5 *28:7 4.5 
3 *28:7 *28:8 470.61 
4 *28:8 *419:io_in[34] 11.475 
*END

*D_NET *29 0.308774
*CONN
*P io_in[35] I
*I *419:io_in[35] I *D user_proj_example
*CAP
1 io_in[35] 0.000416115
2 *419:io_in[35] 0.000212551
3 *29:16 0.0681407
4 *29:15 0.0679282
5 *29:13 0.0856706
6 *29:11 0.0860867
7 *419:io_in[35] *75:5 0.000319365
*RES
1 io_in[35] *29:11 2.295 
2 *29:11 *29:13 642.15 
3 *29:13 *29:15 4.5 
4 *29:15 *29:16 540.81 
5 *29:16 *419:io_in[35] 10.935 
*END

*D_NET *30 0.474468
*CONN
*P io_in[36] I
*I *419:io_in[36] I *D user_proj_example
*CAP
1 io_in[36] 0.000178104
2 *419:io_in[36] 5.63893e-05
3 *30:16 0.150128
4 *30:15 0.150071
5 *30:13 0.0869281
6 *30:11 0.0871063
7 *30:16 *68:9 0
*RES
1 io_in[36] *30:11 1.215 
2 *30:11 *30:13 651.15 
3 *30:13 *30:15 4.5 
4 *30:15 *30:16 608.31 
5 *30:16 *419:io_in[36] 9.405 
*END

*D_NET *31 0.34621
*CONN
*P io_in[37] I
*I *419:io_in[37] I *D user_proj_example
*CAP
1 io_in[37] 0.000546072
2 *419:io_in[37] 0.000102352
3 *31:16 0.0847915
4 *31:15 0.0846891
5 *31:13 0.0877673
6 *31:11 0.0883133
7 *31:13 *394:10 0
*RES
1 io_in[37] *31:11 2.835 
2 *31:11 *31:13 658.35 
3 *31:13 *31:15 4.5 
4 *31:15 *31:16 678.51 
5 *31:16 *419:io_in[37] 9.765 
*END

*D_NET *32 0.284168
*CONN
*P io_in[3] I
*I *419:io_in[3] I *D user_proj_example
*CAP
1 io_in[3] 0.000259274
2 *419:io_in[3] 0.000249622
3 *32:16 0.066902
4 *32:15 0.0666524
5 *32:13 0.0748506
6 *32:11 0.0751099
7 *419:io_in[3] *50:9 0.000143871
*RES
1 io_in[3] *32:11 1.575 
2 *32:11 *32:13 558.99 
3 *32:13 *32:15 4.5 
4 *32:15 *32:16 532.71 
5 *32:16 *419:io_in[3] 11.295 
*END

*D_NET *33 0.272688
*CONN
*P io_in[4] I
*I *419:io_in[4] I *D user_proj_example
*CAP
1 io_in[4] 0.00571201
2 *419:io_in[4] 2.55281e-05
3 *33:12 0.0611912
4 *33:11 0.0611656
5 *33:9 0.0685758
6 *33:7 0.0742878
7 *419:io_in[4] *50:9 0.000100659
8 *33:12 *408:7 0.00162968
*RES
1 io_in[4] *33:7 43.425 
2 *33:7 *33:9 510.48 
3 *33:9 *33:11 4.5 
4 *33:11 *33:12 467.55 
5 *33:12 *419:io_in[4] 9.27 
*END

*D_NET *34 0.309879
*CONN
*P io_in[5] I
*I *419:io_in[5] I *D user_proj_example
*CAP
1 io_in[5] 0.0595627
2 *419:io_in[5] 0.000102358
3 *34:8 0.0538317
4 *34:7 0.0537294
5 *34:5 0.0595627
6 *27:13 *34:5 0.0830903
*RES
1 io_in[5] *34:5 545.265 
2 *34:5 *34:7 4.5 
3 *34:7 *34:8 402.93 
4 *34:8 *419:io_in[5] 9.765 
*END

*D_NET *35 0.241287
*CONN
*P io_in[6] I
*I *419:io_in[6] I *D user_proj_example
*CAP
1 io_in[6] 0.000493126