*SPEF "ieee 1481-1999"
*DESIGN "user_project_wrapper"
*DATE "11:11:11 Fri 11 11, 1111"
*VENDOR "OpenRCX"
*PROGRAM "Parallel Extraction"
*VERSION "1.0"
*DESIGN_FLOW "NAME_SCOPE LOCAL" "PIN_CAP NONE"
*DIVIDER /
*DELIMITER :
*BUS_DELIMITER []
*T_UNIT 1 NS
*C_UNIT 1 PF
*R_UNIT 1 OHM
*L_UNIT 1 HENRY

*NAME_MAP
*1 io_in[0]
*2 io_in[10]
*3 io_in[11]
*4 io_in[12]
*5 io_in[13]
*6 io_in[14]
*7 io_in[15]
*8 io_in[16]
*9 io_in[17]
*10 io_in[18]
*11 io_in[19]
*12 io_in[1]
*13 io_in[20]
*14 io_in[21]
*15 io_in[22]
*16 io_in[23]
*17 io_in[24]
*18 io_in[25]
*19 io_in[26]
*20 io_in[27]
*21 io_in[28]
*22 io_in[29]
*23 io_in[2]
*24 io_in[30]
*25 io_in[31]
*26 io_in[32]
*27 io_in[33]
*28 io_in[34]
*29 io_in[35]
*30 io_in[36]
*31 io_in[37]
*32 io_in[3]
*33 io_in[4]
*34 io_in[5]
*35 io_in[6]
*36 io_in[7]
*37 io_in[8]
*38 io_in[9]
*39 io_oeb[0]
*40 io_oeb[10]
*41 io_oeb[11]
*42 io_oeb[12]
*43 io_oeb[13]
*44 io_oeb[14]
*45 io_oeb[15]
*46 io_oeb[16]
*47 io_oeb[17]
*48 io_oeb[18]
*49 io_oeb[19]
*50 io_oeb[1]
*51 io_oeb[20]
*52 io_oeb[21]
*53 io_oeb[22]
*54 io_oeb[23]
*55 io_oeb[24]
*56 io_oeb[25]
*57 io_oeb[26]
*58 io_oeb[27]
*59 io_oeb[28]
*60 io_oeb[29]
*61 io_oeb[2]
*62 io_oeb[30]
*63 io_oeb[31]
*64 io_oeb[32]
*65 io_oeb[33]
*66 io_oeb[34]
*67 io_oeb[35]
*68 io_oeb[36]
*69 io_oeb[37]
*70 io_oeb[3]
*71 io_oeb[4]
*72 io_oeb[5]
*73 io_oeb[6]
*74 io_oeb[7]
*75 io_oeb[8]
*76 io_oeb[9]
*77 io_out[0]
*78 io_out[10]
*79 io_out[11]
*80 io_out[12]
*81 io_out[13]
*82 io_out[14]
*83 io_out[15]
*84 io_out[16]
*85 io_out[17]
*86 io_out[18]
*87 io_out[19]
*88 io_out[1]
*89 io_out[20]
*90 io_out[21]
*91 io_out[22]
*92 io_out[23]
*93 io_out[24]
*94 io_out[25]
*95 io_out[26]
*96 io_out[27]
*97 io_out[28]
*98 io_out[29]
*99 io_out[2]
*100 io_out[30]
*101 io_out[31]
*102 io_out[32]
*103 io_out[33]
*104 io_out[34]
*105 io_out[35]
*106 io_out[36]
*107 io_out[37]
*108 io_out[3]
*109 io_out[4]
*110 io_out[5]
*111 io_out[6]
*112 io_out[7]
*113 io_out[8]
*114 io_out[9]
*115 la_data_in[0]
*116 la_data_in[10]
*117 la_data_in[11]
*118 la_data_in[12]
*119 la_data_in[13]
*120 la_data_in[14]
*121 la_data_in[15]
*122 la_data_in[16]
*123 la_data_in[17]
*124 la_data_in[18]
*125 la_data_in[19]
*126 la_data_in[1]
*127 la_data_in[20]
*128 la_data_in[21]
*129 la_data_in[22]
*130 la_data_in[23]
*131 la_data_in[24]
*132 la_data_in[25]
*133 la_data_in[26]
*134 la_data_in[27]
*135 la_data_in[28]
*136 la_data_in[29]
*137 la_data_in[2]
*138 la_data_in[30]
*139 la_data_in[31]
*140 la_data_in[32]
*141 la_data_in[33]
*142 la_data_in[34]
*143 la_data_in[35]
*144 la_data_in[36]
*145 la_data_in[37]
*146 la_data_in[38]
*147 la_data_in[39]
*148 la_data_in[3]
*149 la_data_in[40]
*150 la_data_in[41]
*151 la_data_in[42]
*152 la_data_in[43]
*153 la_data_in[44]
*154 la_data_in[45]
*155 la_data_in[46]
*156 la_data_in[47]
*157 la_data_in[48]
*158 la_data_in[49]
*159 la_data_in[4]
*160 la_data_in[50]
*161 la_data_in[51]
*162 la_data_in[52]
*163 la_data_in[53]
*164 la_data_in[54]
*165 la_data_in[55]
*166 la_data_in[56]
*167 la_data_in[57]
*168 la_data_in[58]
*169 la_data_in[59]
*170 la_data_in[5]
*171 la_data_in[60]
*172 la_data_in[61]
*173 la_data_in[62]
*174 la_data_in[63]
*175 la_data_in[6]
*176 la_data_in[7]
*177 la_data_in[8]
*178 la_data_in[9]
*179 la_data_out[0]
*180 la_data_out[10]
*181 la_data_out[11]
*182 la_data_out[12]
*183 la_data_out[13]
*184 la_data_out[14]
*185 la_data_out[15]
*186 la_data_out[16]
*187 la_data_out[17]
*188 la_data_out[18]
*189 la_data_out[19]
*190 la_data_out[1]
*191 la_data_out[20]
*192 la_data_out[21]
*193 la_data_out[22]
*194 la_data_out[23]
*195 la_data_out[24]
*196 la_data_out[25]
*197 la_data_out[26]
*198 la_data_out[27]
*199 la_data_out[28]
*200 la_data_out[29]
*201 la_data_out[2]
*202 la_data_out[30]
*203 la_data_out[31]
*204 la_data_out[32]
*205 la_data_out[33]
*206 la_data_out[34]
*207 la_data_out[35]
*208 la_data_out[36]
*209 la_data_out[37]
*210 la_data_out[38]
*211 la_data_out[39]
*212 la_data_out[3]
*213 la_data_out[40]
*214 la_data_out[41]
*215 la_data_out[42]
*216 la_data_out[43]
*217 la_data_out[44]
*218 la_data_out[45]
*219 la_data_out[46]
*220 la_data_out[47]
*221 la_data_out[48]
*222 la_data_out[49]
*223 la_data_out[4]
*224 la_data_out[50]
*225 la_data_out[51]
*226 la_data_out[52]
*227 la_data_out[53]
*228 la_data_out[54]
*229 la_data_out[55]
*230 la_data_out[56]
*231 la_data_out[57]
*232 la_data_out[58]
*233 la_data_out[59]
*234 la_data_out[5]
*235 la_data_out[60]
*236 la_data_out[61]
*237 la_data_out[62]
*238 la_data_out[63]
*239 la_data_out[6]
*240 la_data_out[7]
*241 la_data_out[8]
*242 la_data_out[9]
*243 la_oenb[0]
*244 la_oenb[10]
*245 la_oenb[11]
*246 la_oenb[12]
*247 la_oenb[13]
*248 la_oenb[14]
*249 la_oenb[15]
*250 la_oenb[16]
*251 la_oenb[17]
*252 la_oenb[18]
*253 la_oenb[19]
*254 la_oenb[1]
*255 la_oenb[20]
*256 la_oenb[21]
*257 la_oenb[22]
*258 la_oenb[23]
*259 la_oenb[24]
*260 la_oenb[25]
*261 la_oenb[26]
*262 la_oenb[27]
*263 la_oenb[28]
*264 la_oenb[29]
*265 la_oenb[2]
*266 la_oenb[30]
*267 la_oenb[31]
*268 la_oenb[32]
*269 la_oenb[33]
*270 la_oenb[34]
*271 la_oenb[35]
*272 la_oenb[36]
*273 la_oenb[37]
*274 la_oenb[38]
*275 la_oenb[39]
*276 la_oenb[3]
*277 la_oenb[40]
*278 la_oenb[41]
*279 la_oenb[42]
*280 la_oenb[43]
*281 la_oenb[44]
*282 la_oenb[45]
*283 la_oenb[46]
*284 la_oenb[47]
*285 la_oenb[48]
*286 la_oenb[49]
*287 la_oenb[4]
*288 la_oenb[50]
*289 la_oenb[51]
*290 la_oenb[52]
*291 la_oenb[53]
*292 la_oenb[54]
*293 la_oenb[55]
*294 la_oenb[56]
*295 la_oenb[57]
*296 la_oenb[58]
*297 la_oenb[59]
*298 la_oenb[5]
*299 la_oenb[60]
*300 la_oenb[61]
*301 la_oenb[62]
*302 la_oenb[63]
*303 la_oenb[6]
*304 la_oenb[7]
*305 la_oenb[8]
*306 la_oenb[9]
*307 user_clock2
*308 user_irq[0]
*309 user_irq[1]
*310 user_irq[2]
*313 wb_clk_i
*314 wb_rst_i
*315 wbs_ack_o
*316 wbs_adr_i[0]
*317 wbs_adr_i[10]
*318 wbs_adr_i[11]
*319 wbs_adr_i[12]
*320 wbs_adr_i[13]
*321 wbs_adr_i[14]
*322 wbs_adr_i[15]
*323 wbs_adr_i[16]
*324 wbs_adr_i[17]
*325 wbs_adr_i[18]
*326 wbs_adr_i[19]
*327 wbs_adr_i[1]
*328 wbs_adr_i[20]
*329 wbs_adr_i[21]
*330 wbs_adr_i[22]
*331 wbs_adr_i[23]
*332 wbs_adr_i[24]
*333 wbs_adr_i[25]
*334 wbs_adr_i[26]
*335 wbs_adr_i[27]
*336 wbs_adr_i[28]
*337 wbs_adr_i[29]
*338 wbs_adr_i[2]
*339 wbs_adr_i[30]
*340 wbs_adr_i[31]
*341 wbs_adr_i[3]
*342 wbs_adr_i[4]
*343 wbs_adr_i[5]
*344 wbs_adr_i[6]
*345 wbs_adr_i[7]
*346 wbs_adr_i[8]
*347 wbs_adr_i[9]
*348 wbs_cyc_i
*349 wbs_dat_i[0]
*350 wbs_dat_i[10]
*351 wbs_dat_i[11]
*352 wbs_dat_i[12]
*353 wbs_dat_i[13]
*354 wbs_dat_i[14]
*355 wbs_dat_i[15]
*356 wbs_dat_i[16]
*357 wbs_dat_i[17]
*358 wbs_dat_i[18]
*359 wbs_dat_i[19]
*360 wbs_dat_i[1]
*361 wbs_dat_i[20]
*362 wbs_dat_i[21]
*363 wbs_dat_i[22]
*364 wbs_dat_i[23]
*365 wbs_dat_i[24]
*366 wbs_dat_i[25]
*367 wbs_dat_i[26]
*368 wbs_dat_i[27]
*369 wbs_dat_i[28]
*370 wbs_dat_i[29]
*371 wbs_dat_i[2]
*372 wbs_dat_i[30]
*373 wbs_dat_i[31]
*374 wbs_dat_i[3]
*375 wbs_dat_i[4]
*376 wbs_dat_i[5]
*377 wbs_dat_i[6]
*378 wbs_dat_i[7]
*379 wbs_dat_i[8]
*380 wbs_dat_i[9]
*381 wbs_dat_o[0]
*382 wbs_dat_o[10]
*383 wbs_dat_o[11]
*384 wbs_dat_o[12]
*385 wbs_dat_o[13]
*386 wbs_dat_o[14]
*387 wbs_dat_o[15]
*388 wbs_dat_o[16]
*389 wbs_dat_o[17]
*390 wbs_dat_o[18]
*391 wbs_dat_o[19]
*392 wbs_dat_o[1]
*393 wbs_dat_o[20]
*394 wbs_dat_o[21]
*395 wbs_dat_o[22]
*396 wbs_dat_o[23]
*397 wbs_dat_o[24]
*398 wbs_dat_o[25]
*399 wbs_dat_o[26]
*400 wbs_dat_o[27]
*401 wbs_dat_o[28]
*402 wbs_dat_o[29]
*403 wbs_dat_o[2]
*404 wbs_dat_o[30]
*405 wbs_dat_o[31]
*406 wbs_dat_o[3]
*407 wbs_dat_o[4]
*408 wbs_dat_o[5]
*409 wbs_dat_o[6]
*410 wbs_dat_o[7]
*411 wbs_dat_o[8]
*412 wbs_dat_o[9]
*413 wbs_sel_i[0]
*414 wbs_sel_i[1]
*415 wbs_sel_i[2]
*416 wbs_sel_i[3]
*417 wbs_stb_i
*418 wbs_we_i
*419 mprj

*PORTS
io_in[0] I
io_in[10] I
io_in[11] I
io_in[12] I
io_in[13] I
io_in[14] I
io_in[15] I
io_in[16] I
io_in[17] I
io_in[18] I
io_in[19] I
io_in[1] I
io_in[20] I
io_in[21] I
io_in[22] I
io_in[23] I
io_in[24] I
io_in[25] I
io_in[26] I
io_in[27] I
io_in[28] I
io_in[29] I
io_in[2] I
io_in[30] I
io_in[31] I
io_in[32] I
io_in[33] I
io_in[34] I
io_in[35] I
io_in[36] I
io_in[37] I
io_in[3] I
io_in[4] I
io_in[5] I
io_in[6] I
io_in[7] I
io_in[8] I
io_in[9] I
io_oeb[0] O
io_oeb[10] O
io_oeb[11] O
io_oeb[12] O
io_oeb[13] O
io_oeb[14] O
io_oeb[15] O
io_oeb[16] O
io_oeb[17] O
io_oeb[18] O
io_oeb[19] O
io_oeb[1] O
io_oeb[20] O
io_oeb[21] O
io_oeb[22] O
io_oeb[23] O
io_oeb[24] O
io_oeb[25] O
io_oeb[26] O
io_oeb[27] O
io_oeb[28] O
io_oeb[29] O
io_oeb[2] O
io_oeb[30] O
io_oeb[31] O
io_oeb[32] O
io_oeb[33] O
io_oeb[34] O
io_oeb[35] O
io_oeb[36] O
io_oeb[37] O
io_oeb[3] O
io_oeb[4] O
io_oeb[5] O
io_oeb[6] O
io_oeb[7] O
io_oeb[8] O
io_oeb[9] O
io_out[0] O
io_out[10] O
io_out[11] O
io_out[12] O
io_out[13] O
io_out[14] O
io_out[15] O
io_out[16] O
io_out[17] O
io_out[18] O
io_out[19] O
io_out[1] O
io_out[20] O
io_out[21] O
io_out[22] O
io_out[23] O
io_out[24] O
io_out[25] O
io_out[26] O
io_out[27] O
io_out[28] O
io_out[29] O
io_out[2] O
io_out[30] O
io_out[31] O
io_out[32] O
io_out[33] O
io_out[34] O
io_out[35] O
io_out[36] O
io_out[37] O
io_out[3] O
io_out[4] O
io_out[5] O
io_out[6] O
io_out[7] O
io_out[8] O
io_out[9] O
la_data_in[0] I
la_data_in[10] I
la_data_in[11] I
la_data_in[12] I
la_data_in[13] I
la_data_in[14] I
la_data_in[15] I
la_data_in[16] I
la_data_in[17] I
la_data_in[18] I
la_data_in[19] I
la_data_in[1] I
la_data_in[20] I
la_data_in[21] I
la_data_in[22] I
la_data_in[23] I
la_data_in[24] I
la_data_in[25] I
la_data_in[26] I
la_data_in[27] I
la_data_in[28] I
la_data_in[29] I
la_data_in[2] I
la_data_in[30] I
la_data_in[31] I
la_data_in[32] I
la_data_in[33] I
la_data_in[34] I
la_data_in[35] I
la_data_in[36] I
la_data_in[37] I
la_data_in[38] I
la_data_in[39] I
la_data_in[3] I
la_data_in[40] I
la_data_in[41] I
la_data_in[42] I
la_data_in[43] I
la_data_in[44] I
la_data_in[45] I
la_data_in[46] I
la_data_in[47] I
la_data_in[48] I
la_data_in[49] I
la_data_in[4] I
la_data_in[50] I
la_data_in[51] I
la_data_in[52] I
la_data_in[53] I
la_data_in[54] I
la_data_in[55] I
la_data_in[56] I
la_data_in[57] I
la_data_in[58] I
la_data_in[59] I
la_data_in[5] I
la_data_in[60] I
la_data_in[61] I
la_data_in[62] I
la_data_in[63] I
la_data_in[6] I
la_data_in[7] I
la_data_in[8] I
la_data_in[9] I
la_data_out[0] O
la_data_out[10] O
la_data_out[11] O
la_data_out[12] O
la_data_out[13] O
la_data_out[14] O
la_data_out[15] O
la_data_out[16] O
la_data_out[17] O
la_data_out[18] O
la_data_out[19] O
la_data_out[1] O
la_data_out[20] O
la_data_out[21] O
la_data_out[22] O
la_data_out[23] O
la_data_out[24] O
la_data_out[25] O
la_data_out[26] O
la_data_out[27] O
la_data_out[28] O
la_data_out[29] O
la_data_out[2] O
la_data_out[30] O
la_data_out[31] O
la_data_out[32] O
la_data_out[33] O
la_data_out[34] O
la_data_out[35] O
la_data_out[36] O
la_data_out[37] O
la_data_out[38] O
la_data_out[39] O
la_data_out[3] O
la_data_out[40] O
la_data_out[41] O
la_data_out[42] O
la_data_out[43] O
la_data_out[44] O
la_data_out[45] O
la_data_out[46] O
la_data_out[47] O
la_data_out[48] O
la_data_out[49] O
la_data_out[4] O
la_data_out[50] O
la_data_out[51] O
la_data_out[52] O
la_data_out[53] O
la_data_out[54] O
la_data_out[55] O
la_data_out[56] O
la_data_out[57] O
la_data_out[58] O
la_data_out[59] O
la_data_out[5] O
la_data_out[60] O
la_data_out[61] O
la_data_out[62] O
la_data_out[63] O
la_data_out[6] O
la_data_out[7] O
la_data_out[8] O
la_data_out[9] O
la_oenb[0] I
la_oenb[10] I
la_oenb[11] I
la_oenb[12] I
la_oenb[13] I
la_oenb[14] I
la_oenb[15] I
la_oenb[16] I
la_oenb[17] I
la_oenb[18] I
la_oenb[19] I
la_oenb[1] I
la_oenb[20] I
la_oenb[21] I
la_oenb[22] I
la_oenb[23] I
la_oenb[24] I
la_oenb[25] I
la_oenb[26] I
la_oenb[27] I
la_oenb[28] I
la_oenb[29] I
la_oenb[2] I
la_oenb[30] I
la_oenb[31] I
la_oenb[32] I
la_oenb[33] I
la_oenb[34] I
la_oenb[35] I
la_oenb[36] I
la_oenb[37] I
la_oenb[38] I
la_oenb[39] I
la_oenb[3] I
la_oenb[40] I
la_oenb[41] I
la_oenb[42] I
la_oenb[43] I
la_oenb[44] I
la_oenb[45] I
la_oenb[46] I
la_oenb[47] I
la_oenb[48] I
la_oenb[49] I
la_oenb[4] I
la_oenb[50] I
la_oenb[51] I
la_oenb[52] I
la_oenb[53] I
la_oenb[54] I
la_oenb[55] I
la_oenb[56] I
la_oenb[57] I
la_oenb[58] I
la_oenb[59] I
la_oenb[5] I
la_oenb[60] I
la_oenb[61] I
la_oenb[62] I
la_oenb[63] I
la_oenb[6] I
la_oenb[7] I
la_oenb[8] I
la_oenb[9] I
user_clock2 I
user_irq[0] O
user_irq[1] O
user_irq[2] O
wb_clk_i I
wb_rst_i I
wbs_ack_o O
wbs_adr_i[0] I
wbs_adr_i[10] I
wbs_adr_i[11] I
wbs_adr_i[12] I
wbs_adr_i[13] I
wbs_adr_i[14] I
wbs_adr_i[15] I
wbs_adr_i[16] I
wbs_adr_i[17] I
wbs_adr_i[18] I
wbs_adr_i[19] I
wbs_adr_i[1] I
wbs_adr_i[20] I
wbs_adr_i[21] I
wbs_adr_i[22] I
wbs_adr_i[23] I
wbs_adr_i[24] I
wbs_adr_i[25] I
wbs_adr_i[26] I
wbs_adr_i[27] I
wbs_adr_i[28] I
wbs_adr_i[29] I
wbs_adr_i[2] I
wbs_adr_i[30] I
wbs_adr_i[31] I
wbs_adr_i[3] I
wbs_adr_i[4] I
wbs_adr_i[5] I
wbs_adr_i[6] I
wbs_adr_i[7] I
wbs_adr_i[8] I
wbs_adr_i[9] I
wbs_cyc_i I
wbs_dat_i[0] I
wbs_dat_i[10] I
wbs_dat_i[11] I
wbs_dat_i[12] I
wbs_dat_i[13] I
wbs_dat_i[14] I
wbs_dat_i[15] I
wbs_dat_i[16] I
wbs_dat_i[17] I
wbs_dat_i[18] I
wbs_dat_i[19] I
wbs_dat_i[1] I
wbs_dat_i[20] I
wbs_dat_i[21] I
wbs_dat_i[22] I
wbs_dat_i[23] I
wbs_dat_i[24] I
wbs_dat_i[25] I
wbs_dat_i[26] I
wbs_dat_i[27] I
wbs_dat_i[28] I
wbs_dat_i[29] I
wbs_dat_i[2] I
wbs_dat_i[30] I
wbs_dat_i[31] I
wbs_dat_i[3] I
wbs_dat_i[4] I
wbs_dat_i[5] I
wbs_dat_i[6] I
wbs_dat_i[7] I
wbs_dat_i[8] I
wbs_dat_i[9] I
wbs_dat_o[0] O
wbs_dat_o[10] O
wbs_dat_o[11] O
wbs_dat_o[12] O
wbs_dat_o[13] O
wbs_dat_o[14] O
wbs_dat_o[15] O
wbs_dat_o[16] O
wbs_dat_o[17] O
wbs_dat_o[18] O
wbs_dat_o[19] O
wbs_dat_o[1] O
wbs_dat_o[20] O
wbs_dat_o[21] O
wbs_dat_o[22] O
wbs_dat_o[23] O
wbs_dat_o[24] O
wbs_dat_o[25] O
wbs_dat_o[26] O
wbs_dat_o[27] O
wbs_dat_o[28] O
wbs_dat_o[29] O
wbs_dat_o[2] O
wbs_dat_o[30] O
wbs_dat_o[31] O
wbs_dat_o[3] O
wbs_dat_o[4] O
wbs_dat_o[5] O
wbs_dat_o[6] O
wbs_dat_o[7] O
wbs_dat_o[8] O
wbs_dat_o[9] O
wbs_sel_i[0] I
wbs_sel_i[1] I
wbs_sel_i[2] I
wbs_sel_i[3] I
wbs_stb_i I
wbs_we_i I

*D_NET *1 0.387768
*CONN
*P io_in[0] I
*I *419:io_in[0] I *D user_proj_example
*CAP
1 io_in[0] 0.0585468
2 *419:io_in[0] 9.68945e-05
3 *1:8 0.0861913
4 *1:7 0.0860944
5 *1:5 0.0585468
6 *1:5 la_data_out[63] 0
7 *1:5 *69:12 0.097044
8 *1:5 *172:8 0
9 *1:5 *184:18 0.00124733
10 *1:5 *244:8 0
*RES
1 io_in[0] *1:5 492.366 
2 *1:5 *1:7 4.5 
3 *1:7 *1:8 611.572 
4 *1:8 *419:io_in[0] 9.646 
*END

*D_NET *2 0.335079
*CONN
*P io_in[10] I
*I *419:io_in[10] I *D user_proj_example
*CAP
1 io_in[10] 0.000336608
2 *419:io_in[10] 0
3 *2:21 0.000826432
4 *2:19 0.00170789
5 *2:11 0.0189065
6 *2:10 0.018025
7 *2:8 0.00049321
8 *2:7 0.000829818
9 *2:8 *38:8 0.0272108
10 *2:8 *50:32 0.000153453
11 *2:8 *72:17 0.0260527
12 *2:11 *38:11 0
13 *2:11 *50:27 0.000297244
14 *2:11 *50:29 0.110878
15 *2:11 *75:5 0.0128504
16 *2:19 *3:19 0.00105345
17 *2:19 *50:24 0.00320673
18 *2:19 *50:27 0.00215316
19 *2:19 *66:11 0
20 *2:19 *75:5 0.000747044
21 *2:19 *104:11 3.76863e-05
22 *2:21 *50:9 0.0520199
23 *2:21 *50:24 0.00101502
24 *2:21 *75:5 0.0562789
*RES
1 io_in[10] *2:7 6.058 
2 *2:7 *2:8 68.628 
3 *2:8 *2:10 4.5 
4 *2:10 *2:11 272.612 
5 *2:11 *2:19 28.684 
6 *2:19 *2:21 136.572 
7 *2:21 *419:io_in[10] 4.5 
*END

*D_NET *3 0.164726
*CONN
*P io_in[11] I
*I *419:io_in[11] I *D user_proj_example
*CAP
1 io_in[11] 0.000439042
2 *419:io_in[11] 0.000258119
3 *3:19 0.00720969
4 *3:18 0.00920466
5 *3:13 0.0381418
6 *3:11 0.0363277
7 *3:19 *22:11 0.00944786
8 *3:19 *38:11 0.0121827
9 *3:19 *50:9 0.000184498
10 *3:19 *50:24 0.0017951
11 *3:19 *50:27 0.00116535
12 *3:19 *50:29 0.000759704
13 *3:19 *97:9 0.0465563
14 *2:19 *3:19 0.00105345
*RES
1 io_in[11] *3:11 2.242 
2 *3:11 *3:13 249.508 
3 *3:13 *3:18 24.276 
4 *3:18 *3:19 173.356 
5 *3:19 *419:io_in[11] 14.944 
*END

*D_NET *4 0.145485
*CONN
*P io_in[12] I
*I *419:io_in[12] I *D user_proj_example
*CAP
1 io_in[12] 0.00294312
2 *419:io_in[12] 0.00116131
3 *4:11 0.0549418
4 *4:10 0.0567236
5 *4:10 *5:8 0.00041026
6 *4:10 *6:8 0.01114
7 *4:10 *72:17 0.000223648
8 *4:11 *419:io_in[18] 0.000320258
9 *4:11 *419:io_in[20] 0.000459665
10 *4:11 *43:10 0.000210992
11 *4:11 *55:10 0.00686023
12 *4:11 *58:8 0.0069103
13 *4:11 *63:8 0
14 *4:11 *76:8 0.00293132
15 *4:11 *80:10 0.000248637
16 *4:11 *114:8 0
*RES
1 io_in[12] *4:10 43.162 
2 *4:10 *4:11 414.428 
3 *4:11 *419:io_in[12] 11.226 
*END

*D_NET *5 0.209721
*CONN
*P io_in[13] I
*I *419:io_in[13] I *D user_proj_example
*CAP
1 io_in[13] 0.000365887
2 *419:io_in[13] 0.00153513
3 *5:11 0.0537156
4 *5:10 0.0521805
5 *5:8 0.00119534
6 *5:7 0.00156123
7 *419:io_in[13] *80:11 8.61144e-05
8 *5:8 *6:8 0.0331137
9 *5:8 *44:17 0.0266649
10 *5:8 *72:17 0.000660441
11 *5:11 *48:10 0.0112
12 *5:11 *54:8 0.027032
13 *5:11 *60:8 0
14 *5:11 *114:8 0
15 *4:10 *5:8 0.00041026
*RES
1 io_in[13] *5:7 6.21 
2 *5:7 *5:8 83.98 
3 *5:8 *5:10 4.5 
4 *5:10 *5:11 408.348 
5 *5:11 *419:io_in[13] 13.658 
*END

*D_NET *6 0.201523
*CONN
*P io_in[14] I
*I *419:io_in[14] I *D user_proj_example
*CAP
1 io_in[14] 0.000386508
2 *419:io_in[14] 0.00189265
3 *6:11 0.0572876
4 *6:10 0.0553949
5 *6:8 0.00854764
6 *6:7 0.00893415
7 *419:io_in[14] *44:13 0
8 *419:io_in[14] *81:11 3.08011e-05
9 *6:8 *44:17 0.0106055
10 *6:11 *49:8 0.0139783
11 *6:11 *60:8 0
12 *6:11 *72:14 0
13 *6:11 *86:10 0.000211251
14 *4:10 *6:8 0.01114
15 *5:8 *6:8 0.0331137
*RES
1 io_in[14] *6:7 6.362 
2 *6:7 *6:8 136.116 
3 *6:8 *6:10 4.5 
4 *6:10 *6:11 401.812 
5 *6:11 *419:io_in[14] 15.786 
*END

*D_NET *7 0.283334
*CONN
*P io_in[15] I
*I *419:io_in[15] I *D user_proj_example
*CAP
1 io_in[15] 0.000281767
2 *419:io_in[15] 0.00231229
3 *7:11 0.0279757
4 *7:10 0.0256634
5 *7:8 0.0257925
6 *7:7 0.0260743
7 *7:8 *9:8 0.0267199
8 *7:8 *16:8 0.0203564
9 *7:8 *17:11 0.000406023
10 *7:8 *45:14 0.124535
11 *7:11 *57:15 0.00321672
*RES
1 io_in[15] *7:7 6.21 
2 *7:7 *7:8 383.268 
3 *7:8 *7:10 4.5 
4 *7:10 *7:11 178.296 
5 *7:11 *419:io_in[15] 14.098 
*END

*D_NET *8 0.177754
*CONN
*P io_in[16] I
*I *419:io_in[16] I *D user_proj_example
*CAP
1 io_in[16] 0.000187183
2 *419:io_in[16] 0.00121289
3 *8:11 0.0288032
4 *8:10 0.0275903
5 *8:8 0.0313482
6 *8:7 0.0315354
7 *419:io_in[16] *20:13 0.000899353
8 *419:io_in[16] *46:9 0
9 *419:io_in[16] *94:8 8.4969e-05
10 *8:8 *14:16 0.0110883
11 *8:8 *15:8 0.0146068
12 *8:8 *17:11 0.00232072
13 *8:8 *45:14 0.0262329
14 *8:8 *92:14 0.00184364
15 *8:11 *46:9 0
*RES
1 io_in[16] *8:7 5.602 
2 *8:7 *8:8 282.796 
3 *8:8 *8:10 4.5 
4 *8:10 *8:11 185.82 
5 *8:11 *419:io_in[16] 16.866 
*END

*D_NET *9 0.140396
*CONN
*P io_in[17] I
*I *419:io_in[17] I *D user_proj_example
*CAP
1 io_in[17] 0.000385541
2 *419:io_in[17] 9.29104e-05
3 *9:11 0.0284749
4 *9:10 0.028382
5 *9:8 0.0204309
6 *9:7 0.0208164
7 *9:8 *16:8 0.0150936
8 *9:11 *84:10 0
9 *7:8 *9:8 0.0267199
*RES
1 io_in[17] *9:7 6.514 
2 *9:7 *9:8 189.012 
3 *9:8 *9:10 4.5 
4 *9:10 *9:11 190.38 
5 *9:11 *419:io_in[17] 0.646 
*END

*D_NET *10 0.100308
*CONN
*P io_in[18] I
*I *419:io_in[18] I *D user_proj_example
*CAP
1 io_in[18] 0.000863474
2 *419:io_in[18] 0.00119867
3 *10:11 0.028037
4 *10:10 0.0268383
5 *10:8 0.00887208
6 *10:7 0.00973556
7 *419:io_in[18] *58:8 0.00134089
8 *419:io_in[18] *84:13 0
9 *419:io_in[18] *85:13 7.318e-06
10 *10:8 *13:8 0.00192413
11 *10:8 *86:14 0.0211703
12 *10:11 *11:19 0
13 *10:11 *48:10 0
14 *10:11 *86:10 0
15 *4:11 *419:io_in[18] 0.000320258
*RES
1 io_in[18] *10:7 9.858 
2 *10:7 *10:8 88.54 
3 *10:8 *10:10 4.5 
4 *10:10 *10:11 180.956 
5 *10:11 *419:io_in[18] 18.386 
*END

*D_NET *11 0.0601143
*CONN
*P io_in[19] I
*I *419:io_in[19] I *D user_proj_example
*CAP
1 io_in[19] 0.000286127
2 *419:io_in[19] 0.00238197
3 *11:19 0.0139744
4 *11:18 0.0122768
5 *11:13 0.0157966
6 *11:11 0.0153983
7 *419:io_in[19] *86:10 0
8 *10:11 *11:19 0
*RES
1 io_in[19] *11:11 2.09 
2 *11:11 *11:13 102.372 
3 *11:13 *11:18 13.788 
4 *11:18 *11:19 77.672 
5 *11:19 *419:io_in[19] 14.402 
*END

*D_NET *12 0.303189
*CONN
*P io_in[1] I
*I *419:io_in[1] I *D user_proj_example
*CAP
1 io_in[1] 0.000439042
2 *419:io_in[1] 0.000176946
3 *12:16 0.0788857
4 *12:15 0.0787088
5 *12:13 0.0722608
6 *12:11 0.0726998
7 *419:io_in[1] *22:11 1.74249e-05
8 *12:13 *404:10 0
*RES
1 io_in[1] *12:11 2.242 
2 *12:11 *12:13 485.564 
3 *12:13 *12:15 4.5 
4 *12:15 *12:16 559.284 
5 *12:16 *419:io_in[1] 10.178 
*END

*D_NET *13 0.0897109
*CONN
*P io_in[20] I
*I *419:io_in[20] I *D user_proj_example
*CAP
1 io_in[20] 0.000898485
2 *419:io_in[20] 0.00131582
3 *13:11 0.0279698
4 *13:10 0.026654
5 *13:8 0.0136087
6 *13:7 0.0145072
7 *419:io_in[20] *51:13 0
8 *419:io_in[20] *58:8 0.00204115
9 *13:11 *49:7 0.000331936
10 *13:11 *87:13 0
11 *4:11 *419:io_in[20] 0.000459665
12 *10:8 *13:8 0.00192413
*RES
1 io_in[20] *13:7 10.01 
2 *13:7 *13:8 96.444 
3 *13:8 *13:10 4.5 
4 *13:10 *13:11 180.804 
5 *13:11 *419:io_in[20] 20.21 
*END

*D_NET *14 0.182458
*CONN
*P io_in[21] I
*I *419:io_in[21] I *D user_proj_example
*CAP
1 io_in[21] 0.000355234
2 *419:io_in[21] 0.000158494
3 *14:19 0.0287331
4 *14:18 0.0285746
5 *14:16 0.00141237
6 *14:15 0.0017676
7 *14:16 *15:8 0.0342095
8 *14:16 *92:14 0.0761589
9 *14:19 *89:10 0
10 *8:8 *14:16 0.0110883
*RES
1 io_in[21] *14:15 6.97 
2 *14:15 *14:16 196.156 
3 *14:16 *14:18 4.5 
4 *14:18 *14:19 191.444 
5 *14:19 *419:io_in[21] 1.102 
*END

*D_NET *15 0.246902
*CONN
*P io_in[22] I
*I *419:io_in[22] I *D user_proj_example
*CAP
1 io_in[22] 0.00022186
2 *419:io_in[22] 9.29104e-05
3 *15:11 0.0285766
4 *15:10 0.0284837
5 *15:8 0.00313197
6 *15:7 0.00335383
7 *15:8 *17:11 0.121334
8 *15:8 *92:14 0.0128903
9 *15:11 *55:11 0
10 *8:8 *15:8 0.0146068
11 *14:16 *15:8 0.0342095
*RES
1 io_in[22] *15:7 5.754 
2 *15:7 *15:8 294.348 
3 *15:8 *15:10 4.5 
4 *15:10 *15:11 191.14 
5 *15:11 *419:io_in[22] 0.646 
*END

*D_NET *16 0.220025
*CONN
*P io_in[23] I
*I *419:io_in[23] I *D user_proj_example
*CAP
1 io_in[23] 0.000329263
2 *419:io_in[23] 0.00211328
3 *16:11 0.0283397
4 *16:10 0.0262264
5 *16:8 0.0447871
6 *16:7 0.0451164
7 *16:8 *17:11 0.0376633
8 *7:8 *16:8 0.0203564
9 *9:8 *16:8 0.0150936
*RES
1 io_in[23] *16:7 6.362 
2 *16:7 *16:8 391.324 
3 *16:8 *16:10 4.5 
4 *16:10 *16:11 178.144 
5 *16:11 *419:io_in[23] 12.654 
*END

*D_NET *17 0.30969
*CONN
*P io_in[24] I
*I *419:io_in[24] I *D user_proj_example
*CAP
1 io_in[24] 0.00239607
2 *419:io_in[24] 0.00240527
3 *17:14 0.0287288
4 *17:13 0.0263236
5 *17:11 0.0261554
6 *17:10 0.0285515
7 *419:io_in[24] *92:10 0
8 *17:11 *45:14 0.0212724
9 *17:11 *92:14 0.0121326
10 *7:8 *17:11 0.000406023
11 *8:8 *17:11 0.00232072
12 *15:8 *17:11 0.121334
13 *16:8 *17:11 0.0376633
*RES
1 io_in[24] *17:10 24.77 
2 *17:10 *17:11 465.5 
3 *17:11 *17:13 4.5 
4 *17:13 *17:14 178.6 
5 *17:14 *419:io_in[24] 14.402 
*END

*D_NET *18 0.175946
*CONN
*P io_in[25] I
*I *419:io_in[25] I *D user_proj_example
*CAP
1 io_in[25] 0.00355673
2 *419:io_in[25] 0.00247925
3 *18:19 0.0685639
4 *18:18 0.0660847
5 *18:16 0.0158524
6 *18:15 0.0194091
7 *18:19 *72:14 0
8 *18:19 *78:14 0
*RES
1 io_in[25] *18:15 27.642 
2 *18:15 *18:16 108.452 
3 *18:16 *18:18 4.5 
4 *18:18 *18:19 457.292 
5 *18:19 *419:io_in[25] 19.814 
*END

*D_NET *19 0.160405
*CONN
*P io_in[26] I
*I *419:io_in[26] I *D user_proj_example
*CAP
1 io_in[26] 0.0030421
2 *419:io_in[26] 0.0027315
3 *19:19 0.0699698
4 *19:18 0.0672383
5 *19:16 0.00719051
6 *19:15 0.0102326
7 *419:io_in[26] *94:7 0
8 *19:19 *78:14 0
9 *19:19 *109:14 0
*RES
1 io_in[26] *19:15 24.45 
2 *19:15 *19:16 49.172 
3 *19:16 *19:18 4.5 
4 *19:18 *19:19 466.412 
5 *19:19 *419:io_in[26] 21.486 
*END

*D_NET *20 0.191495
*CONN
*P io_in[27] I
*I *419:io_in[27] I *D user_proj_example
*CAP
1 io_in[27] 0.000486251
2 *419:io_in[27] 0.000944158
3 *20:13 0.0650664
4 *20:11 0.0646085
5 *20:13 *58:8 0.0118794
6 *20:13 *76:8 0.0435273
7 *20:13 *84:10 0.000444143
8 *20:13 *85:10 0.00119438
9 *20:13 *89:10 0.000933077
10 *20:13 *92:10 0.000838697
11 *20:13 *94:8 0
12 *20:13 *95:8 0
13 *20:13 *109:13 0.000673596
14 *419:io_in[16] *20:13 0.000899353
*RES
1 io_in[27] *20:11 2.394 
2 *20:11 *20:13 492.708 
3 *20:13 *419:io_in[27] 10.162 
*END

*D_NET *21 0.257713
*CONN
*P io_in[28] I
*I *419:io_in[28] I *D user_proj_example
*CAP
1 io_in[28] 0.000846973
2 *419:io_in[28] 0.000202808
3 *21:11 0.0458397
4 *21:10 0.0456369
5 *21:8 0.00753124
6 *21:7 0.00837822
7 *21:11 *24:19 0.102374
8 *21:11 *77:10 0.00434469
9 *21:11 *79:8 0.0425591
*RES
1 io_in[28] *21:7 9.706 
2 *21:7 *21:8 51.452 
3 *21:8 *21:10 4.5 
4 *21:10 *21:11 493.924 
5 *21:11 *419:io_in[28] 5.754 
*END

*D_NET *22 0.23506
*CONN
*P io_in[29] I
*I *419:io_in[29] I *D user_proj_example
*CAP
1 io_in[29] 0.00154787
2 *419:io_in[29] 0.000144028
3 *22:11 0.0578198
4 *22:10 0.0576758
5 *22:8 0.0156466
6 *22:7 0.0171944
7 *22:11 *26:11 0
8 *22:11 *50:7 0.000193697
9 *22:11 *50:9 0.0721524
10 *22:11 *97:9 0.00321986
11 *419:io_in[1] *22:11 1.74249e-05
12 *3:19 *22:11 0.00944786
*RES
1 io_in[29] *22:7 14.266 
2 *22:7 *22:8 106.932 
3 *22:8 *22:10 4.5 
4 *22:10 *22:11 495.748 
5 *22:11 *419:io_in[29] 14.184 
*END

*D_NET *23 0.28855
*CONN
*P io_in[2] I
*I *419:io_in[2] I *D user_proj_example
*CAP
1 io_in[2] 0.000336041
2 *419:io_in[2] 0.000210638
3 *23:16 0.0725819
4 *23:15 0.0723713
5 *23:13 0.071311
6 *23:11 0.071647
7 *419:io_in[2] *50:9 9.24173e-05
*RES
1 io_in[2] *23:11 1.786 
2 *23:11 *23:13 478.724 
3 *23:13 *23:15 4.5 
4 *23:15 *23:16 504.564 
5 *23:16 *419:io_in[2] 10.634 
*END

*D_NET *24 0.319439
*CONN
*P io_in[30] I
*I *419:io_in[30] I *D user_proj_example
*CAP
1 io_in[30] 0.000370374
2 *419:io_in[30] 0.000224669
3 *24:19 0.00623223
4 *24:18 0.00600756
5 *24:16 0.0247262
6 *24:15 0.0247262
7 *24:13 0.0345886
8 *24:11 0.034959
9 *24:13 *314:8 0
10 *24:13 *324:8 0.00275212
11 *24:13 *409:12 0
12 *24:13 *417:22 0
13 *24:16 *417:19 0.000269965
14 *24:19 *40:8 0.00220686
15 *24:19 *59:8 0.0761385
16 *24:19 *79:8 0.00128355
17 *24:19 *79:14 0.00257983
18 *21:11 *24:19 0.102374
*RES
1 io_in[30] *24:11 1.938 
2 *24:11 *24:13 249.508 
3 *24:13 *24:15 4.5 
4 *24:15 *24:16 169.1 
5 *24:16 *24:18 4.5 
6 *24:18 *24:19 262.428 
7 *24:19 *419:io_in[30] 5.906 
*END

*D_NET *25 0.222396
*CONN
*P io_in[31] I
*I *419:io_in[31] I *D user_proj_example
*CAP
1 io_in[31] 0.000157753
2 *419:io_in[31] 0.000166461
3 *25:16 0.0326974
4 *25:15 0.0325309
5 *25:13 0.0772037
6 *25:11 0.0773615
7 *419:io_in[31] *75:5 8.7541e-05
8 *25:13 *283:14 0
9 *25:13 *358:14 0
10 *25:16 *285:17 0.0021908
*RES
1 io_in[31] *25:11 1.026 
2 *25:11 *25:13 517.18 
3 *25:13 *25:15 4.5 
4 *25:15 *25:16 224.124 
5 *25:16 *419:io_in[31] 10.178 
*END

*D_NET *26 0.30096
*CONN
*P io_in[32] I
*I *419:io_in[32] I *D user_proj_example
*CAP
1 io_in[32] 0.00224877
2 *419:io_in[32] 0.000460334
3 *26:11 0.0722069
4 *26:10 0.0717466
5 *26:8 0.0408593
6 *26:7 0.0431081
7 *419:io_in[32] *50:24 1.31793e-05
8 *26:8 *313:13 0
9 *26:11 *38:11 0.0569113
10 *26:11 *97:9 0.0134054
11 *22:11 *26:11 0
*RES
1 io_in[32] *26:7 18.826 
2 *26:7 *26:8 279.452 
3 *26:8 *26:10 4.5 
4 *26:10 *26:11 509.732 
5 *26:11 *419:io_in[32] 16.046 
*END

*D_NET *27 0.317046
*CONN
*P io_in[33] I
*I *419:io_in[33] I *D user_proj_example
*CAP
1 io_in[33] 0.000265534
2 *419:io_in[33] 4.79126e-06
3 *27:16 0.0494122
4 *27:15 0.0494074
5 *27:13 0.0662689
6 *27:11 0.0665344
7 *419:io_in[33] *50:24 8.7541e-05
8 *419:io_in[33] *75:5 8.7541e-05
9 *27:13 *34:5 0.0723693
10 *27:16 *139:13 0.0116945
11 *27:16 *229:15 0.000914039
*RES
1 io_in[33] *27:11 1.482 
2 *27:11 *27:13 530.86 
3 *27:13 *27:15 4.5 
4 *27:15 *27:16 340.1 
5 *27:16 *419:io_in[33] 9.228 
*END

*D_NET *28 0.278303
*CONN
*P io_in[34] I
*I *419:io_in[34] I *D user_proj_example
*CAP
1 io_in[34] 0.0797631
2 *419:io_in[34] 0.000228385
3 *28:8 0.0575651
4 *28:7 0.0573368
5 *28:5 0.0797631
6 *419:io_in[34] *75:5 0.000468757
7 *28:8 *65:11 0
8 *28:8 *294:19 0.00317739
*RES
1 io_in[34] *28:5 535.382 
2 *28:5 *28:7 4.5 
3 *28:7 *28:8 397.404 
4 *28:8 *419:io_in[34] 11.09 
*END

*D_NET *29 0.291616
*CONN
*P io_in[35] I
*I *419:io_in[35] I *D user_proj_example
*CAP
1 io_in[35] 0.000370374
2 *419:io_in[35] 0.000200079
3 *29:16 0.0646392
4 *29:15 0.0644391
5 *29:13 0.0806596
6 *29:11 0.08103
7 *419:io_in[35] *75:5 0.000278149
*RES
1 io_in[35] *29:11 1.938 
2 *29:11 *29:13 542.26 
3 *29:13 *29:15 4.5 
4 *29:15 *29:16 456.684 
5 *29:16 *419:io_in[35] 10.634 
*END

*D_NET *30 0.433085
*CONN
*P io_in[36] I
*I *419:io_in[36] I *D user_proj_example
*CAP
1 io_in[36] 0.000157753
2 *419:io_in[36] 5.31672e-05
3 *30:16 0.13455
4 *30:15 0.134497
5 *30:13 0.0818351
6 *30:11 0.0819929
7 *30:16 *68:9 0
*RES
1 io_in[36] *30:11 1.026 
2 *30:11 *30:13 549.86 
3 *30:13 *30:15 4.5 
4 *30:15 *30:16 513.684 
5 *30:16 *419:io_in[36] 9.342 
*END

*D_NET *31 0.327186
*CONN
*P io_in[37] I
*I *419:io_in[37] I *D user_proj_example
*CAP
1 io_in[37] 0.000486251
2 *419:io_in[37] 9.68898e-05
3 *31:16 0.0804635
4 *31:15 0.0803666
5 *31:13 0.0826433
6 *31:11 0.0831296
7 *31:13 *394:10 0
*RES
1 io_in[37] *31:11 2.394 
2 *31:11 *31:13 555.94 
3 *31:13 *31:15 4.5 
4 *31:15 *31:16 572.964 
5 *31:16 *419:io_in[37] 9.646 
*END

*D_NET *32 0.268398
*CONN
*P io_in[3] I
*I *419:io_in[3] I *D user_proj_example
*CAP
1 io_in[3] 0.000230226
2 *419:io_in[3] 0.000234688
3 *32:16 0.0634651
4 *32:15 0.0632304
5 *32:13 0.0704349
6 *32:11 0.0706652
7 *419:io_in[3] *50:9 0.000137443
*RES
1 io_in[3] *32:11 1.33 
2 *32:11 *32:13 472.036 
3 *32:13 *32:15 4.5 
4 *32:15 *32:16 449.844 
5 *32:16 *419:io_in[3] 10.938 
*END

*D_NET *33 0.257084
*CONN
*P io_in[4] I
*I *419:io_in[4] I *D user_proj_example
*CAP
1 io_in[4] 0.00538897
2 *419:io_in[4] 2.30065e-05
3 *33:12 0.057885
4 *33:11 0.057862
5 *33:9 0.0645012
6 *33:7 0.0698902
7 *419:io_in[4] *50:9 8.75317e-05
8 *33:12 *408:7 0.00144629
*RES
1 io_in[4] *33:7 36.67 
2 *33:7 *33:9 431.072 
3 *33:9 *33:11 4.5 
4 *33:11 *33:12 394.82 
5 *33:12 *419:io_in[4] 9.228 
*END

*D_NET *34 0.286222
*CONN
*P io_in[5] I
*I *419:io_in[5] I *D user_proj_example
*CAP
1 io_in[5] 0.0559466
2 *419:io_in[5] 9.68945e-05
3 *34:8 0.0509797
4 *34:7 0.0508828
5 *34:5 0.0559466
6 *27:13 *34:5 0.0723693
*RES
1 io_in[5] *34:5 460.446 
2 *34:5 *34:7 4.5 
3 *34:7 *34:8 340.252 
4 *34:8 *419:io_in[5] 9.646 
*END

*D_NET *35 0.227047
*CONN
*P io_in[6] I