*SPEF "IEEE 1481-1999"
*DESIGN "user_proj_example"
*DATE "Sun Dec 11 05:29:25 2022"
*VENDOR "Synopsys Inc."
*PROGRAM "StarRC"
*VERSION "T-2022.03-SP3"
*DESIGN_FLOW "PIN_CAP NONE" "NAME_SCOPE LOCAL"
*DIVIDER /
*DELIMITER :
*BUS_DELIMITER []
*T_UNIT 1.0 NS
*C_UNIT 1.0 FF
*R_UNIT 1.0 OHM
*L_UNIT 1.0 HENRY

// COMMENTS

// CORNER_NAME 
// OPERATING_TEMPERATURE 125
// GLOBAL_TEMPERATURE 25
// TCAD_GRD_FILE /home/passant/gf180_timing/caravel-gf180mcu/scripts/gf180-tech/gf180mcu_1p5m_1tm_9k_sp_smim_OPTB_wst.nxtgrd
//   TCAD_TIME_STAMP Tue Dec 26 17:57:55 2017
//   TCADGRD_VERSION 75
// galaxy_comments_begin
//   local_nodeid
// galaxy_comments_end

*NAME_MAP
*1425 io_in[0]
*1426 io_in[10]
*1427 io_in[11]
*1428 io_in[12]
*1429 io_in[13]
*1430 io_in[14]
*1431 io_in[15]
*1432 io_in[16]
*1433 io_in[17]
*1434 io_in[18]
*1435 io_in[19]
*1436 io_in[1]
*1437 io_in[20]
*1438 io_in[21]
*1439 io_in[22]
*1440 io_in[23]
*1441 io_in[24]
*1442 io_in[25]
*1443 io_in[26]
*1444 io_in[27]
*1445 io_in[28]
*1446 io_in[29]
*1447 io_in[2]
*1448 io_in[30]
*1449 io_in[31]
*1450 io_in[32]
*1451 io_in[33]
*1452 io_in[34]
*1453 io_in[35]
*1454 io_in[36]
*1455 io_in[37]
*1456 io_in[3]
*1457 io_in[4]
*1458 io_in[5]
*1459 io_in[6]
*1460 io_in[7]
*1461 io_in[8]
*1462 io_in[9]
*1463 io_oeb[0]
*1464 io_oeb[10]
*1465 io_oeb[11]
*1466 io_oeb[12]
*1467 io_oeb[13]
*1468 io_oeb[14]
*1469 io_oeb[15]
*1470 io_oeb[16]
*1471 io_oeb[17]
*1472 io_oeb[18]
*1473 io_oeb[19]
*1474 io_oeb[1]
*1475 io_oeb[20]
*1476 io_oeb[21]
*1477 io_oeb[22]
*1478 io_oeb[23]
*1479 io_oeb[24]
*1480 io_oeb[25]
*1481 io_oeb[26]
*1482 io_oeb[27]
*1483 io_oeb[28]
*1484 io_oeb[29]
*1485 io_oeb[2]
*1486 io_oeb[30]
*1487 io_oeb[31]
*1488 io_oeb[32]
*1489 io_oeb[33]
*1490 io_oeb[34]
*1491 io_oeb[35]
*1492 io_oeb[36]
*1493 io_oeb[37]
*1494 io_oeb[3]
*1495 io_oeb[4]
*1496 io_oeb[5]
*1497 io_oeb[6]
*1498 io_oeb[7]
*1499 io_oeb[8]
*1500 io_oeb[9]
*1501 io_out[0]
*1502 io_out[10]
*1503 io_out[11]
*1504 io_out[12]
*1505 io_out[13]
*1506 io_out[14]
*1507 io_out[15]
*1508 io_out[16]
*1509 io_out[17]
*1510 io_out[18]
*1511 io_out[19]
*1512 io_out[1]
*1513 io_out[20]
*1514 io_out[21]
*1515 io_out[22]
*1516 io_out[23]
*1517 io_out[24]
*1518 io_out[25]
*1519 io_out[26]
*1520 io_out[27]
*1521 io_out[28]
*1522 io_out[29]
*1523 io_out[2]
*1524 io_out[30]
*1525 io_out[31]
*1526 io_out[32]
*1527 io_out[33]
*1528 io_out[34]
*1529 io_out[35]
*1530 io_out[36]
*1531 io_out[37]
*1532 io_out[3]
*1533 io_out[4]
*1534 io_out[5]
*1535 io_out[6]
*1536 io_out[7]
*1537 io_out[8]
*1538 io_out[9]
*1539 irq[0]
*1540 irq[1]
*1541 irq[2]
*1542 la_data_in[0]
*1543 la_data_in[10]
*1544 la_data_in[11]
*1545 la_data_in[12]
*1546 la_data_in[13]
*1547 la_data_in[14]
*1548 la_data_in[15]
*1549 la_data_in[16]
*1550 la_data_in[17]
*1551 la_data_in[18]
*1552 la_data_in[19]
*1553 la_data_in[1]
*1554 la_data_in[20]
*1555 la_data_in[21]
*1556 la_data_in[22]
*1557 la_data_in[23]
*1558 la_data_in[24]
*1559 la_data_in[25]
*1560 la_data_in[26]
*1561 la_data_in[27]
*1562 la_data_in[28]
*1563 la_data_in[29]
*1564 la_data_in[2]
*1565 la_data_in[30]
*1566 la_data_in[31]
*1567 la_data_in[32]
*1568 la_data_in[33]
*1569 la_data_in[34]
*1570 la_data_in[35]
*1571 la_data_in[36]
*1572 la_data_in[37]
*1573 la_data_in[38]
*1574 la_data_in[39]
*1575 la_data_in[3]
*1576 la_data_in[40]
*1577 la_data_in[41]
*1578 la_data_in[42]
*1579 la_data_in[43]
*1580 la_data_in[44]
*1581 la_data_in[45]
*1582 la_data_in[46]
*1583 la_data_in[47]
*1584 la_data_in[48]
*1585 la_data_in[49]
*1586 la_data_in[4]
*1587 la_data_in[50]
*1588 la_data_in[51]
*1589 la_data_in[52]
*1590 la_data_in[53]
*1591 la_data_in[54]
*1592 la_data_in[55]
*1593 la_data_in[56]
*1594 la_data_in[57]
*1595 la_data_in[58]
*1596 la_data_in[59]
*1597 la_data_in[5]
*1598 la_data_in[60]
*1599 la_data_in[61]
*1600 la_data_in[62]
*1601 la_data_in[63]
*1602 la_data_in[6]
*1603 la_data_in[7]
*1604 la_data_in[8]
*1605 la_data_in[9]
*1606 la_data_out[0]
*1607 la_data_out[10]
*1608 la_data_out[11]
*1609 la_data_out[12]
*1610 la_data_out[13]
*1611 la_data_out[14]
*1612 la_data_out[15]
*1613 la_data_out[16]
*1614 la_data_out[17]
*1615 la_data_out[18]
*1616 la_data_out[19]
*1617 la_data_out[1]
*1618 la_data_out[20]
*1619 la_data_out[21]
*1620 la_data_out[22]
*1621 la_data_out[23]
*1622 la_data_out[24]
*1623 la_data_out[25]
*1624 la_data_out[26]
*1625 la_data_out[27]
*1626 la_data_out[28]
*1627 la_data_out[29]
*1628 la_data_out[2]
*1629 la_data_out[30]
*1630 la_data_out[31]
*1631 la_data_out[32]
*1632 la_data_out[33]
*1633 la_data_out[34]
*1634 la_data_out[35]
*1635 la_data_out[36]
*1636 la_data_out[37]
*1637 la_data_out[38]
*1638 la_data_out[39]
*1639 la_data_out[3]
*1640 la_data_out[40]
*1641 la_data_out[41]
*1642 la_data_out[42]
*1643 la_data_out[43]
*1644 la_data_out[44]
*1645 la_data_out[45]
*1646 la_data_out[46]
*1647 la_data_out[47]
*1648 la_data_out[48]
*1649 la_data_out[49]
*1650 la_data_out[4]
*1651 la_data_out[50]
*1652 la_data_out[51]
*1653 la_data_out[52]
*1654 la_data_out[53]
*1655 la_data_out[54]
*1656 la_data_out[55]
*1657 la_data_out[56]
*1658 la_data_out[57]
*1659 la_data_out[58]
*1660 la_data_out[59]
*1661 la_data_out[5]
*1662 la_data_out[60]
*1663 la_data_out[61]
*1664 la_data_out[62]
*1665 la_data_out[63]
*1666 la_data_out[6]
*1667 la_data_out[7]
*1668 la_data_out[8]
*1669 la_data_out[9]
*1670 la_oenb[0]
*1671 la_oenb[10]
*1672 la_oenb[11]
*1673 la_oenb[12]
*1674 la_oenb[13]
*1675 la_oenb[14]
*1676 la_oenb[15]
*1677 la_oenb[16]
*1678 la_oenb[17]
*1679 la_oenb[18]
*1680 la_oenb[19]
*1681 la_oenb[1]
*1682 la_oenb[20]
*1683 la_oenb[21]
*1684 la_oenb[22]
*1685 la_oenb[23]
*1686 la_oenb[24]
*1687 la_oenb[25]
*1688 la_oenb[26]
*1689 la_oenb[27]
*1690 la_oenb[28]
*1691 la_oenb[29]
*1692 la_oenb[2]
*1693 la_oenb[30]
*1694 la_oenb[31]
*1695 la_oenb[32]
*1696 la_oenb[33]
*1697 la_oenb[34]
*1698 la_oenb[35]
*1699 la_oenb[36]
*1700 la_oenb[37]
*1701 la_oenb[38]
*1702 la_oenb[39]
*1703 la_oenb[3]
*1704 la_oenb[40]
*1705 la_oenb[41]
*1706 la_oenb[42]
*1707 la_oenb[43]
*1708 la_oenb[44]
*1709 la_oenb[45]
*1710 la_oenb[46]
*1711 la_oenb[47]
*1712 la_oenb[48]
*1713 la_oenb[49]
*1714 la_oenb[4]
*1715 la_oenb[50]
*1716 la_oenb[51]
*1717 la_oenb[52]
*1718 la_oenb[53]
*1719 la_oenb[54]
*1720 la_oenb[55]
*1721 la_oenb[56]
*1722 la_oenb[57]
*1723 la_oenb[58]
*1724 la_oenb[59]
*1725 la_oenb[5]
*1726 la_oenb[60]
*1727 la_oenb[61]
*1728 la_oenb[62]
*1729 la_oenb[63]
*1730 la_oenb[6]
*1731 la_oenb[7]
*1732 la_oenb[8]
*1733 la_oenb[9]
*1734 user_clock2
*1735 wb_clk_i
*1736 wb_rst_i
*1737 wbs_ack_o
*1738 wbs_adr_i[0]
*1739 wbs_adr_i[10]
*1740 wbs_adr_i[11]
*1741 wbs_adr_i[12]
*1742 wbs_adr_i[13]
*1743 wbs_adr_i[14]
*1744 wbs_adr_i[15]
*1745 wbs_adr_i[16]
*1746 wbs_adr_i[17]
*1747 wbs_adr_i[18]
*1748 wbs_adr_i[19]
*1749 wbs_adr_i[1]
*1750 wbs_adr_i[20]
*1751 wbs_adr_i[21]
*1752 wbs_adr_i[22]
*1753 wbs_adr_i[23]
*1754 wbs_adr_i[24]
*1755 wbs_adr_i[25]
*1756 wbs_adr_i[26]
*1757 wbs_adr_i[27]
*1758 wbs_adr_i[28]
*1759 wbs_adr_i[29]
*1760 wbs_adr_i[2]
*1761 wbs_adr_i[30]
*1762 wbs_adr_i[31]
*1763 wbs_adr_i[3]
*1764 wbs_adr_i[4]
*1765 wbs_adr_i[5]
*1766 wbs_adr_i[6]
*1767 wbs_adr_i[7]
*1768 wbs_adr_i[8]
*1769 wbs_adr_i[9]
*1770 wbs_cyc_i
*1771 wbs_dat_i[0]
*1772 wbs_dat_i[10]
*1773 wbs_dat_i[11]
*1774 wbs_dat_i[12]
*1775 wbs_dat_i[13]
*1776 wbs_dat_i[14]
*1777 wbs_dat_i[15]
*1778 wbs_dat_i[16]
*1779 wbs_dat_i[17]
*1780 wbs_dat_i[18]
*1781 wbs_dat_i[19]
*1782 wbs_dat_i[1]
*1783 wbs_dat_i[20]
*1784 wbs_dat_i[21]
*1785 wbs_dat_i[22]
*1786 wbs_dat_i[23]
*1787 wbs_dat_i[24]
*1788 wbs_dat_i[25]
*1789 wbs_dat_i[26]
*1790 wbs_dat_i[27]
*1791 wbs_dat_i[28]
*1792 wbs_dat_i[29]
*1793 wbs_dat_i[2]
*1794 wbs_dat_i[30]
*1795 wbs_dat_i[31]
*1796 wbs_dat_i[3]
*1797 wbs_dat_i[4]
*1798 wbs_dat_i[5]
*1799 wbs_dat_i[6]
*1800 wbs_dat_i[7]
*1801 wbs_dat_i[8]
*1802 wbs_dat_i[9]
*1803 wbs_dat_o[0]
*1804 wbs_dat_o[10]
*1805 wbs_dat_o[11]
*1806 wbs_dat_o[12]
*1807 wbs_dat_o[13]
*1808 wbs_dat_o[14]
*1809 wbs_dat_o[15]
*1810 wbs_dat_o[16]
*1811 wbs_dat_o[17]
*1812 wbs_dat_o[18]
*1813 wbs_dat_o[19]
*1814 wbs_dat_o[1]
*1815 wbs_dat_o[20]
*1816 wbs_dat_o[21]
*1817 wbs_dat_o[22]
*1818 wbs_dat_o[23]
*1819 wbs_dat_o[24]
*1820 wbs_dat_o[25]
*1821 wbs_dat_o[26]
*1822 wbs_dat_o[27]
*1823 wbs_dat_o[28]
*1824 wbs_dat_o[29]
*1825 wbs_dat_o[2]
*1826 wbs_dat_o[30]
*1827 wbs_dat_o[31]
*1828 wbs_dat_o[3]
*1829 wbs_dat_o[4]
*1830 wbs_dat_o[5]
*1831 wbs_dat_o[6]
*1832 wbs_dat_o[7]
*1833 wbs_dat_o[8]
*1834 wbs_dat_o[9]
*1835 wbs_sel_i[0]
*1836 wbs_sel_i[1]
*1837 wbs_sel_i[2]
*1838 wbs_sel_i[3]
*1839 wbs_stb_i
*1840 wbs_we_i
*1841 ANTENNA_CLK_BUF\[0\]_I
*1842 ANTENNA_CLK_BUF\[1\]_I
*1843 ANTENNA_i_BUF\[0\]_I
*1844 ANTENNA_i_BUF\[100\]_I
*1845 ANTENNA_i_BUF\[101\]_I
*1846 ANTENNA_i_BUF\[102\]_I
*1847 ANTENNA_i_BUF\[103\]_I
*1848 ANTENNA_i_BUF\[104\]_I
*1849 ANTENNA_i_BUF\[105\]_I
*1850 ANTENNA_i_BUF\[106\]_I
*1851 ANTENNA_i_BUF\[107\]_I
*1852 ANTENNA_i_BUF\[108\]_I
*1853 ANTENNA_i_BUF\[109\]_I
*1854 ANTENNA_i_BUF\[10\]_I
*1855 ANTENNA_i_BUF\[110\]_I
*1856 ANTENNA_i_BUF\[111\]_I
*1857 ANTENNA_i_BUF\[112\]_I
*1858 ANTENNA_i_BUF\[113\]_I
*1859 ANTENNA_i_BUF\[114\]_I
*1860 ANTENNA_i_BUF\[115\]_I
*1861 ANTENNA_i_BUF\[116\]_I
*1862 ANTENNA_i_BUF\[117\]_I
*1863 ANTENNA_i_BUF\[118\]_I
*1864 ANTENNA_i_BUF\[119\]_I
*1865 ANTENNA_i_BUF\[11\]_I
*1866 ANTENNA_i_BUF\[120\]_I
*1867 ANTENNA_i_BUF\[121\]_I
*1868 ANTENNA_i_BUF\[122\]_I
*1869 ANTENNA_i_BUF\[123\]_I
*1870 ANTENNA_i_BUF\[124\]_I
*1871 ANTENNA_i_BUF\[125\]_I
*1872 ANTENNA_i_BUF\[126\]_I
*1873 ANTENNA_i_BUF\[127\]_I
*1874 ANTENNA_i_BUF\[128\]_I
*1875 ANTENNA_i_BUF\[129\]_I
*1876 ANTENNA_i_BUF\[12\]_I
*1877 ANTENNA_i_BUF\[130\]_I
*1878 ANTENNA_i_BUF\[131\]_I
*1879 ANTENNA_i_BUF\[132\]_I
*1880 ANTENNA_i_BUF\[133\]_I
*1881 ANTENNA_i_BUF\[134\]_I
*1882 ANTENNA_i_BUF\[135\]_I
*1883 ANTENNA_i_BUF\[136\]_I
*1884 ANTENNA_i_BUF\[137\]_I
*1885 ANTENNA_i_BUF\[138\]_I
*1886 ANTENNA_i_BUF\[139\]_I
*1887 ANTENNA_i_BUF\[13\]_I
*1888 ANTENNA_i_BUF\[140\]_I
*1889 ANTENNA_i_BUF\[141\]_I
*1890 ANTENNA_i_BUF\[142\]_I
*1891 ANTENNA_i_BUF\[143\]_I
*1892 ANTENNA_i_BUF\[144\]_I
*1893 ANTENNA_i_BUF\[145\]_I
*1894 ANTENNA_i_BUF\[146\]_I
*1895 ANTENNA_i_BUF\[147\]_I
*1896 ANTENNA_i_BUF\[148\]_I
*1897 ANTENNA_i_BUF\[149\]_I
*1898 ANTENNA_i_BUF\[14\]_I
*1899 ANTENNA_i_BUF\[150\]_I
*1900 ANTENNA_i_BUF\[151\]_I
*1901 ANTENNA_i_BUF\[152\]_I
*1902 ANTENNA_i_BUF\[153\]_I
*1903 ANTENNA_i_BUF\[154\]_I
*1904 ANTENNA_i_BUF\[155\]_I
*1905 ANTENNA_i_BUF\[156\]_I
*1906 ANTENNA_i_BUF\[157\]_I
*1907 ANTENNA_i_BUF\[158\]_I
*1908 ANTENNA_i_BUF\[159\]_I
*1909 ANTENNA_i_BUF\[15\]_I
*1910 ANTENNA_i_BUF\[160\]_I
*1911 ANTENNA_i_BUF\[161\]_I
*1912 ANTENNA_i_BUF\[162\]_I
*1913 ANTENNA_i_BUF\[163\]_I
*1914 ANTENNA_i_BUF\[164\]_I
*1915 ANTENNA_i_BUF\[165\]_I
*1916 ANTENNA_i_BUF\[166\]_I
*1917 ANTENNA_i_BUF\[167\]_I
*1918 ANTENNA_i_BUF\[168\]_I
*1919 ANTENNA_i_BUF\[169\]_I
*1920 ANTENNA_i_BUF\[16\]_I
*1921 ANTENNA_i_BUF\[170\]_I
*1922 ANTENNA_i_BUF\[171\]_I
*1923 ANTENNA_i_BUF\[172\]_I
*1924 ANTENNA_i_BUF\[173\]_I
*1925 ANTENNA_i_BUF\[174\]_I
*1926 ANTENNA_i_BUF\[175\]_I
*1927 ANTENNA_i_BUF\[176\]_I
*1928 ANTENNA_i_BUF\[177\]_I
*1929 ANTENNA_i_BUF\[178\]_I
*1930 ANTENNA_i_BUF\[179\]_I
*1931 ANTENNA_i_BUF\[17\]_I
*1932 ANTENNA_i_BUF\[180\]_I
*1933 ANTENNA_i_BUF\[181\]_I
*1934 ANTENNA_i_BUF\[182\]_I
*1935 ANTENNA_i_BUF\[183\]_I
*1936 ANTENNA_i_BUF\[184\]_I
*1937 ANTENNA_i_BUF\[185\]_I
*1938 ANTENNA_i_BUF\[186\]_I
*1939 ANTENNA_i_BUF\[187\]_I
*1940 ANTENNA_i_BUF\[188\]_I
*1941 ANTENNA_i_BUF\[189\]_I
*1942 ANTENNA_i_BUF\[18\]_I
*1943 ANTENNA_i_BUF\[190\]_I
*1944 ANTENNA_i_BUF\[191\]_I
*1945 ANTENNA_i_BUF\[192\]_I
*1946 ANTENNA_i_BUF\[193\]_I
*1947 ANTENNA_i_BUF\[194\]_I
*1948 ANTENNA_i_BUF\[195\]_I
*1949 ANTENNA_i_BUF\[196\]_I
*1950 ANTENNA_i_BUF\[197\]_I
*1951 ANTENNA_i_BUF\[198\]_I
*1952 ANTENNA_i_BUF\[199\]_I
*1953 ANTENNA_i_BUF\[19\]_I
*1954 ANTENNA_i_BUF\[1\]_I
*1955 ANTENNA_i_BUF\[200\]_I
*1956 ANTENNA_i_BUF\[201\]_I
*1957 ANTENNA_i_BUF\[202\]_I
*1958 ANTENNA_i_BUF\[203\]_I
*1959 ANTENNA_i_BUF\[204\]_I
*1960 ANTENNA_i_BUF\[205\]_I
*1961 ANTENNA_i_BUF\[206\]_I
*1962 ANTENNA_i_BUF\[207\]_I
*1963 ANTENNA_i_BUF\[208\]_I
*1964 ANTENNA_i_BUF\[209\]_I
*1965 ANTENNA_i_BUF\[20\]_I
*1966 ANTENNA_i_BUF\[210\]_I
*1967 ANTENNA_i_BUF\[211\]_I
*1968 ANTENNA_i_BUF\[212\]_I
*1969 ANTENNA_i_BUF\[213\]_I
*1970 ANTENNA_i_BUF\[214\]_I
*1971 ANTENNA_i_BUF\[215\]_I
*1972 ANTENNA_i_BUF\[216\]_I
*1973 ANTENNA_i_BUF\[217\]_I
*1974 ANTENNA_i_BUF\[218\]_I
*1975 ANTENNA_i_BUF\[219\]_I
*1976 ANTENNA_i_BUF\[21\]_I
*1977 ANTENNA_i_BUF\[220\]_I
*1978 ANTENNA_i_BUF\[221\]_I
*1979 ANTENNA_i_BUF\[222\]_I
*1980 ANTENNA_i_BUF\[223\]_I
*1981 ANTENNA_i_BUF\[224\]_I
*1982 ANTENNA_i_BUF\[225\]_I
*1983 ANTENNA_i_BUF\[226\]_I
*1984 ANTENNA_i_BUF\[227\]_I
*1985 ANTENNA_i_BUF\[228\]_I
*1986 ANTENNA_i_BUF\[229\]_I
*1987 ANTENNA_i_BUF\[22\]_I
*1988 ANTENNA_i_BUF\[230\]_I
*1989 ANTENNA_i_BUF\[231\]_I
*1990 ANTENNA_i_BUF\[232\]_I
*1991 ANTENNA_i_BUF\[233\]_I
*1992 ANTENNA_i_BUF\[234\]_I
*1993 ANTENNA_i_BUF\[235\]_I
*1994 ANTENNA_i_BUF\[236\]_I
*1995 ANTENNA_i_BUF\[237\]_I
*1996 ANTENNA_i_BUF\[23\]_I
*1997 ANTENNA_i_BUF\[24\]_I
*1998 ANTENNA_i_BUF\[25\]_I
*1999 ANTENNA_i_BUF\[26\]_I
*2000 ANTENNA_i_BUF\[27\]_I
*2001 ANTENNA_i_BUF\[28\]_I
*2002 ANTENNA_i_BUF\[29\]_I
*2003 ANTENNA_i_BUF\[2\]_I
*2004 ANTENNA_i_BUF\[30\]_I
*2005 ANTENNA_i_BUF\[31\]_I
*2006 ANTENNA_i_BUF\[32\]_I
*2007 ANTENNA_i_BUF\[33\]_I
*2008 ANTENNA_i_BUF\[34\]_I
*2009 ANTENNA_i_BUF\[35\]_I
*2010 ANTENNA_i_BUF\[36\]_I
*2011 ANTENNA_i_BUF\[37\]_I
*2012 ANTENNA_i_BUF\[38\]_I
*2013 ANTENNA_i_BUF\[39\]_I
*2014 ANTENNA_i_BUF\[3\]_I
*2015 ANTENNA_i_BUF\[40\]_I
*2016 ANTENNA_i_BUF\[41\]_I
*2017 ANTENNA_i_BUF\[42\]_I
*2018 ANTENNA_i_BUF\[43\]_I
*2019 ANTENNA_i_BUF\[44\]_I
*2020 ANTENNA_i_BUF\[45\]_I
*2021 ANTENNA_i_BUF\[46\]_I
*2022 ANTENNA_i_BUF\[47\]_I
*2023 ANTENNA_i_BUF\[48\]_I
*2024 ANTENNA_i_BUF\[49\]_I
*2025 ANTENNA_i_BUF\[4\]_I
*2026 ANTENNA_i_BUF\[50\]_I
*2027 ANTENNA_i_BUF\[51\]_I
*2028 ANTENNA_i_BUF\[52\]_I
*2029 ANTENNA_i_BUF\[53\]_I
*2030 ANTENNA_i_BUF\[54\]_I
*2031 ANTENNA_i_BUF\[55\]_I
*2032 ANTENNA_i_BUF\[56\]_I
*2033 ANTENNA_i_BUF\[57\]_I
*2034 ANTENNA_i_BUF\[58\]_I
*2035 ANTENNA_i_BUF\[59\]_I
*2036 ANTENNA_i_BUF\[5\]_I
*2037 ANTENNA_i_BUF\[60\]_I
*2038 ANTENNA_i_BUF\[61\]_I
*2039 ANTENNA_i_BUF\[62\]_I
*2040 ANTENNA_i_BUF\[63\]_I
*2041 ANTENNA_i_BUF\[64\]_I
*2042 ANTENNA_i_BUF\[65\]_I
*2043 ANTENNA_i_BUF\[66\]_I
*2044 ANTENNA_i_BUF\[67\]_I
*2045 ANTENNA_i_BUF\[68\]_I
*2046 ANTENNA_i_BUF\[69\]_I
*2047 ANTENNA_i_BUF\[6\]_I
*2048 ANTENNA_i_BUF\[70\]_I
*2049 ANTENNA_i_BUF\[71\]_I
*2050 ANTENNA_i_BUF\[72\]_I
*2051 ANTENNA_i_BUF\[73\]_I
*2052 ANTENNA_i_BUF\[74\]_I
*2053 ANTENNA_i_BUF\[75\]_I
*2054 ANTENNA_i_BUF\[76\]_I
*2055 ANTENNA_i_BUF\[77\]_I
*2056 ANTENNA_i_BUF\[78\]_I
*2057 ANTENNA_i_BUF\[79\]_I
*2058 ANTENNA_i_BUF\[7\]_I
*2059 ANTENNA_i_BUF\[80\]_I
*2060 ANTENNA_i_BUF\[81\]_I
*2061 ANTENNA_i_BUF\[82\]_I
*2062 ANTENNA_i_BUF\[83\]_I
*2063 ANTENNA_i_BUF\[84\]_I
*2064 ANTENNA_i_BUF\[85\]_I
*2065 ANTENNA_i_BUF\[86\]_I
*2066 ANTENNA_i_BUF\[87\]_I
*2067 ANTENNA_i_BUF\[88\]_I
*2068 ANTENNA_i_BUF\[89\]_I
*2069 ANTENNA_i_BUF\[8\]_I
*2070 ANTENNA_i_BUF\[90\]_I
*2071 ANTENNA_i_BUF\[91\]_I
*2072 ANTENNA_i_BUF\[92\]_I
*2073 ANTENNA_i_BUF\[93\]_I
*2074 ANTENNA_i_BUF\[94\]_I
*2075 ANTENNA_i_BUF\[95\]_I
*2076 ANTENNA_i_BUF\[96\]_I
*2077 ANTENNA_i_BUF\[97\]_I
*2078 ANTENNA_i_BUF\[98\]_I
*2079 ANTENNA_i_BUF\[99\]_I
*2080 ANTENNA_i_BUF\[9\]_I
*2081 ANTENNA_i_FF\[0\]_CLK
*2082 ANTENNA_i_FF\[0\]_D
*2083 ANTENNA_i_FF\[100\]_CLK
*2084 ANTENNA_i_FF\[101\]_CLK
*2085 ANTENNA_i_FF\[101\]_D
*2086 ANTENNA_i_FF\[102\]_CLK
*2087 ANTENNA_i_FF\[103\]_CLK
*2088 ANTENNA_i_FF\[103\]_D
*2089 ANTENNA_i_FF\[104\]_CLK
*2090 ANTENNA_i_FF\[104\]_D
*2091 ANTENNA_i_FF\[105\]_CLK
*2092 ANTENNA_i_FF\[105\]_D
*2093 ANTENNA_i_FF\[106\]_CLK
*2094 ANTENNA_i_FF\[106\]_D
*2095 ANTENNA_i_FF\[107\]_CLK
*2096 ANTENNA_i_FF\[107\]_D
*2097 ANTENNA_i_FF\[108\]_CLK
*2098 ANTENNA_i_FF\[108\]_D
*2099 ANTENNA_i_FF\[109\]_CLK
*2100 ANTENNA_i_FF\[109\]_D
*2101 ANTENNA_i_FF\[10\]_CLK
*2102 ANTENNA_i_FF\[110\]_CLK
*2103 ANTENNA_i_FF\[110\]_D
*2104 ANTENNA_i_FF\[111\]_CLK
*2105 ANTENNA_i_FF\[111\]_D
*2106 ANTENNA_i_FF\[112\]_CLK
*2107 ANTENNA_i_FF\[112\]_D
*2108 ANTENNA_i_FF\[113\]_CLK
*2109 ANTENNA_i_FF\[113\]_D
*2110 ANTENNA_i_FF\[114\]_CLK
*2111 ANTENNA_i_FF\[115\]_CLK
*2112 ANTENNA_i_FF\[116\]_CLK
*2113 ANTENNA_i_FF\[117\]_CLK
*2114 ANTENNA_i_FF\[118\]_CLK
*2115 ANTENNA_i_FF\[118\]_D
*2116 ANTENNA_i_FF\[119\]_CLK
*2117 ANTENNA_i_FF\[119\]_D
*2118 ANTENNA_i_FF\[11\]_CLK
*2119 ANTENNA_i_FF\[120\]_CLK
*2120 ANTENNA_i_FF\[120\]_D
*2121 ANTENNA_i_FF\[121\]_CLK
*2122 ANTENNA_i_FF\[121\]_D
*2123 ANTENNA_i_FF\[122\]_CLK
*2124 ANTENNA_i_FF\[122\]_D
*2125 ANTENNA_i_FF\[123\]_CLK
*2126 ANTENNA_i_FF\[123\]_D
*2127 ANTENNA_i_FF\[124\]_CLK
*2128 ANTENNA_i_FF\[124\]_D
*2129 ANTENNA_i_FF\[125\]_CLK
*2130 ANTENNA_i_FF\[125\]_D
*2131 ANTENNA_i_FF\[126\]_CLK
*2132 ANTENNA_i_FF\[126\]_D
*2133 ANTENNA_i_FF\[127\]_CLK
*2134 ANTENNA_i_FF\[127\]_D
*2135 ANTENNA_i_FF\[128\]_CLK
*2136 ANTENNA_i_FF\[129\]_CLK
*2137 ANTENNA_i_FF\[12\]_CLK
*2138 ANTENNA_i_FF\[130\]_CLK
*2139 ANTENNA_i_FF\[131\]_CLK
*2140 ANTENNA_i_FF\[131\]_D
*2141 ANTENNA_i_FF\[132\]_CLK
*2142 ANTENNA_i_FF\[133\]_CLK
*2143 ANTENNA_i_FF\[134\]_CLK
*2144 ANTENNA_i_FF\[135\]_CLK
*2145 ANTENNA_i_FF\[136\]_CLK
*2146 ANTENNA_i_FF\[137\]_CLK
*2147 ANTENNA_i_FF\[138\]_CLK
*2148 ANTENNA_i_FF\[139\]_CLK
*2149 ANTENNA_i_FF\[13\]_CLK
*2150 ANTENNA_i_FF\[140\]_CLK
*2151 ANTENNA_i_FF\[141\]_CLK
*2152 ANTENNA_i_FF\[142\]_CLK
*2153 ANTENNA_i_FF\[143\]_CLK
*2154 ANTENNA_i_FF\[144\]_CLK
*2155 ANTENNA_i_FF\[145\]_CLK
*2156 ANTENNA_i_FF\[146\]_CLK
*2157 ANTENNA_i_FF\[147\]_CLK
*2158 ANTENNA_i_FF\[148\]_CLK
*2159 ANTENNA_i_FF\[149\]_CLK
*2160 ANTENNA_i_FF\[14\]_CLK
*2161 ANTENNA_i_FF\[150\]_CLK
*2162 ANTENNA_i_FF\[151\]_CLK
*2163 ANTENNA_i_FF\[152\]_CLK
*2164 ANTENNA_i_FF\[152\]_D
*2165 ANTENNA_i_FF\[153\]_CLK
*2166 ANTENNA_i_FF\[153\]_D
*2167 ANTENNA_i_FF\[154\]_CLK
*2168 ANTENNA_i_FF\[154\]_D
*2169 ANTENNA_i_FF\[155\]_CLK
*2170 ANTENNA_i_FF\[155\]_D
*2171 ANTENNA_i_FF\[156\]_CLK
*2172 ANTENNA_i_FF\[156\]_D
*2173 ANTENNA_i_FF\[157\]_CLK
*2174 ANTENNA_i_FF\[157\]_D
*2175 ANTENNA_i_FF\[158\]_CLK
*2176 ANTENNA_i_FF\[159\]_CLK
*2177 ANTENNA_i_FF\[159\]_D
*2178 ANTENNA_i_FF\[15\]_CLK
*2179 ANTENNA_i_FF\[160\]_CLK
*2180 ANTENNA_i_FF\[161\]_CLK
*2181 ANTENNA_i_FF\[162\]_CLK
*2182 ANTENNA_i_FF\[162\]_D
*2183 ANTENNA_i_FF\[163\]_CLK
*2184 ANTENNA_i_FF\[164\]_CLK
*2185 ANTENNA_i_FF\[165\]_CLK
*2186 ANTENNA_i_FF\[166\]_CLK
*2187 ANTENNA_i_FF\[166\]_D
*2188 ANTENNA_i_FF\[167\]_CLK
*2189 ANTENNA_i_FF\[168\]_CLK
*2190 ANTENNA_i_FF\[168\]_D
*2191 ANTENNA_i_FF\[169\]_CLK
*2192 ANTENNA_i_FF\[169\]_D
*2193 ANTENNA_i_FF\[16\]_CLK
*2194 ANTENNA_i_FF\[170\]_CLK
*2195 ANTENNA_i_FF\[170\]_D
*2196 ANTENNA_i_FF\[171\]_CLK
*2197 ANTENNA_i_FF\[171\]_D
*2198 ANTENNA_i_FF\[172\]_CLK
*2199 ANTENNA_i_FF\[172\]_D
*2200 ANTENNA_i_FF\[173\]_CLK
*2201 ANTENNA_i_FF\[173\]_D
*2202 ANTENNA_i_FF\[174\]_CLK
*2203 ANTENNA_i_FF\[174\]_D
*2204 ANTENNA_i_FF\[175\]_CLK
*2205 ANTENNA_i_FF\[175\]_D
*2206 ANTENNA_i_FF\[176\]_CLK
*2207 ANTENNA_i_FF\[176\]_D
*2208 ANTENNA_i_FF\[177\]_CLK
*2209 ANTENNA_i_FF\[177\]_D
*2210 ANTENNA_i_FF\[178\]_CLK
*2211 ANTENNA_i_FF\[178\]_D
*2212 ANTENNA_i_FF\[179\]_CLK
*2213 ANTENNA_i_FF\[17\]_CLK
*2214 ANTENNA_i_FF\[180\]_CLK
*2215 ANTENNA_i_FF\[181\]_CLK
*2216 ANTENNA_i_FF\[182\]_CLK
*2217 ANTENNA_i_FF\[182\]_D
*2218 ANTENNA_i_FF\[183\]_CLK
*2219 ANTENNA_i_FF\[183\]_D
*2220 ANTENNA_i_FF\[184\]_CLK
*2221 ANTENNA_i_FF\[184\]_D
*2222 ANTENNA_i_FF\[185\]_CLK
*2223 ANTENNA_i_FF\[185\]_D
*2224 ANTENNA_i_FF\[186\]_CLK
*2225 ANTENNA_i_FF\[186\]_D
*2226 ANTENNA_i_FF\[187\]_CLK
*2227 ANTENNA_i_FF\[187\]_D
*2228 ANTENNA_i_FF\[188\]_CLK
*2229 ANTENNA_i_FF\[188\]_D
*2230 ANTENNA_i_FF\[189\]_CLK
*2231 ANTENNA_i_FF\[189\]_D
*2232 ANTENNA_i_FF\[18\]_CLK
*2233 ANTENNA_i_FF\[190\]_CLK
*2234 ANTENNA_i_FF\[190\]_D
*2235 ANTENNA_i_FF\[191\]_CLK
*2236 ANTENNA_i_FF\[191\]_D
*2237 ANTENNA_i_FF\[192\]_CLK
*2238 ANTENNA_i_FF\[192\]_D
*2239 ANTENNA_i_FF\[193\]_CLK
*2240 ANTENNA_i_FF\[193\]_D
*2241 ANTENNA_i_FF\[194\]_CLK
*2242 ANTENNA_i_FF\[194\]_D
*2243 ANTENNA_i_FF\[195\]_CLK
*2244 ANTENNA_i_FF\[195\]_D
*2245 ANTENNA_i_FF\[196\]_CLK
*2246 ANTENNA_i_FF\[196\]_D
*2247 ANTENNA_i_FF\[197\]_CLK
*2248 ANTENNA_i_FF\[197\]_D
*2249 ANTENNA_i_FF\[198\]_CLK
*2250 ANTENNA_i_FF\[198\]_D
*2251 ANTENNA_i_FF\[199\]_CLK
*2252 ANTENNA_i_FF\[199\]_D
*2253 ANTENNA_i_FF\[19\]_CLK
*2254 ANTENNA_i_FF\[1\]_CLK
*2255 ANTENNA_i_FF\[200\]_CLK
*2256 ANTENNA_i_FF\[200\]_D
*2257 ANTENNA_i_FF\[201\]_CLK
*2258 ANTENNA_i_FF\[201\]_D
*2259 ANTENNA_i_FF\[202\]_CLK
*2260 ANTENNA_i_FF\[202\]_D
*2261 ANTENNA_i_FF\[203\]_CLK
*2262 ANTENNA_i_FF\[203\]_D
*2263 ANTENNA_i_FF\[204\]_CLK
*2264 ANTENNA_i_FF\[204\]_D
*2265 ANTENNA_i_FF\[205\]_CLK
*2266 ANTENNA_i_FF\[205\]_D
*2267 ANTENNA_i_FF\[206\]_CLK
*2268 ANTENNA_i_FF\[206\]_D
*2269 ANTENNA_i_FF\[207\]_CLK
*2270 ANTENNA_i_FF\[207\]_D
*2271 ANTENNA_i_FF\[208\]_CLK
*2272 ANTENNA_i_FF\[208\]_D
*2273 ANTENNA_i_FF\[209\]_CLK
*2274 ANTENNA_i_FF\[209\]_D
*2275 ANTENNA_i_FF\[20\]_CLK
*2276 ANTENNA_i_FF\[210\]_CLK
*2277 ANTENNA_i_FF\[210\]_D
*2278 ANTENNA_i_FF\[211\]_CLK
*2279 ANTENNA_i_FF\[211\]_D
*2280 ANTENNA_i_FF\[212\]_CLK
*2281 ANTENNA_i_FF\[212\]_D
*2282 ANTENNA_i_FF\[213\]_CLK
*2283 ANTENNA_i_FF\[213\]_D
*2284 ANTENNA_i_FF\[214\]_CLK
*2285 ANTENNA_i_FF\[214\]_D
*2286 ANTENNA_i_FF\[215\]_CLK
*2287 ANTENNA_i_FF\[215\]_D
*2288 ANTENNA_i_FF\[216\]_CLK
*2289 ANTENNA_i_FF\[216\]_D
*2290 ANTENNA_i_FF\[217\]_CLK
*2291 ANTENNA_i_FF\[217\]_D
*2292 ANTENNA_i_FF\[218\]_CLK
*2293 ANTENNA_i_FF\[218\]_D
*2294 ANTENNA_i_FF\[219\]_CLK
*2295 ANTENNA_i_FF\[219\]_D
*2296 ANTENNA_i_FF\[21\]_CLK
*2297 ANTENNA_i_FF\[220\]_CLK
*2298 ANTENNA_i_FF\[220\]_D
*2299 ANTENNA_i_FF\[221\]_CLK
*2300 ANTENNA_i_FF\[221\]_D
*2301 ANTENNA_i_FF\[222\]_CLK
*2302 ANTENNA_i_FF\[222\]_D
*2303 ANTENNA_i_FF\[223\]_CLK
*2304 ANTENNA_i_FF\[223\]_D
*2305 ANTENNA_i_FF\[224\]_CLK
*2306 ANTENNA_i_FF\[224\]_D
*2307 ANTENNA_i_FF\[225\]_CLK
*2308 ANTENNA_i_FF\[225\]_D
*2309 ANTENNA_i_FF\[226\]_CLK
*2310 ANTENNA_i_FF\[226\]_D
*2311 ANTENNA_i_FF\[227\]_CLK
*2312 ANTENNA_i_FF\[227\]_D
*2313 ANTENNA_i_FF\[228\]_CLK
*2314 ANTENNA_i_FF\[228\]_D
*2315 ANTENNA_i_FF\[229\]_CLK
*2316 ANTENNA_i_FF\[229\]_D
*2317 ANTENNA_i_FF\[22\]_CLK
*2318 ANTENNA_i_FF\[230\]_CLK
*2319 ANTENNA_i_FF\[230\]_D
*2320 ANTENNA_i_FF\[231\]_CLK
*2321 ANTENNA_i_FF\[231\]_D
*2322 ANTENNA_i_FF\[232\]_CLK
*2323 ANTENNA_i_FF\[232\]_D
*2324 ANTENNA_i_FF\[233\]_CLK
*2325 ANTENNA_i_FF\[233\]_D
*2326 ANTENNA_i_FF\[234\]_CLK
*2327 ANTENNA_i_FF\[235\]_CLK
*2328 ANTENNA_i_FF\[236\]_CLK
*2329 ANTENNA_i_FF\[236\]_D
*2330 ANTENNA_i_FF\[23\]_CLK
*2331 ANTENNA_i_FF\[24\]_CLK
*2332 ANTENNA_i_FF\[25\]_CLK
*2333 ANTENNA_i_FF\[26\]_CLK
*2334 ANTENNA_i_FF\[27\]_CLK
*2335 ANTENNA_i_FF\[27\]_D
*2336 ANTENNA_i_FF\[28\]_CLK
*2337 ANTENNA_i_FF\[29\]_CLK
*2338 ANTENNA_i_FF\[2\]_CLK
*2339 ANTENNA_i_FF\[2\]_D
*2340 ANTENNA_i_FF\[30\]_CLK
*2341 ANTENNA_i_FF\[31\]_CLK
*2342 ANTENNA_i_FF\[32\]_CLK
*2343 ANTENNA_i_FF\[33\]_CLK
*2344 ANTENNA_i_FF\[34\]_CLK
*2345 ANTENNA_i_FF\[34\]_D
*2346 ANTENNA_i_FF\[35\]_CLK
*2347 ANTENNA_i_FF\[35\]_D
*2348 ANTENNA_i_FF\[36\]_CLK
*2349 ANTENNA_i_FF\[37\]_CLK
*2350 ANTENNA_i_FF\[38\]_CLK
*2351 ANTENNA_i_FF\[38\]_D
*2352 ANTENNA_i_FF\[39\]_CLK
*2353 ANTENNA_i_FF\[39\]_D
*2354 ANTENNA_i_FF\[3\]_CLK
*2355 ANTENNA_i_FF\[40\]_CLK
*2356 ANTENNA_i_FF\[40\]_D
*2357 ANTENNA_i_FF\[41\]_CLK
*2358 ANTENNA_i_FF\[41\]_D
*2359 ANTENNA_i_FF\[42\]_CLK
*2360 ANTENNA_i_FF\[43\]_CLK
*2361 ANTENNA_i_FF\[44\]_CLK
*2362 ANTENNA_i_FF\[45\]_CLK
*2363 ANTENNA_i_FF\[46\]_CLK
*2364 ANTENNA_i_FF\[47\]_CLK
*2365 ANTENNA_i_FF\[48\]_CLK
*2366 ANTENNA_i_FF\[49\]_CLK
*2367 ANTENNA_i_FF\[4\]_CLK
*2368 ANTENNA_i_FF\[50\]_CLK
*2369 ANTENNA_i_FF\[51\]_CLK
*2370 ANTENNA_i_FF\[52\]_CLK
*2371 ANTENNA_i_FF\[53\]_CLK
*2372 ANTENNA_i_FF\[54\]_CLK
*2373 ANTENNA_i_FF\[55\]_CLK
*2374 ANTENNA_i_FF\[56\]_CLK
*2375 ANTENNA_i_FF\[57\]_CLK
*2376 ANTENNA_i_FF\[58\]_CLK
*2377 ANTENNA_i_FF\[59\]_CLK
*2378 ANTENNA_i_FF\[5\]_CLK
*2379 ANTENNA_i_FF\[60\]_CLK
*2380 ANTENNA_i_FF\[61\]_CLK
*2381 ANTENNA_i_FF\[62\]_CLK
*2382 ANTENNA_i_FF\[63\]_CLK
*2383 ANTENNA_i_FF\[64\]_CLK
*2384 ANTENNA_i_FF\[65\]_CLK
*2385 ANTENNA_i_FF\[66\]_CLK
*2386 ANTENNA_i_FF\[67\]_CLK
*2387 ANTENNA_i_FF\[68\]_CLK
*2388 ANTENNA_i_FF\[69\]_CLK
*2389 ANTENNA_i_FF\[6\]_CLK
*2390 ANTENNA_i_FF\[6\]_D
*2391 ANTENNA_i_FF\[70\]_CLK
*2392 ANTENNA_i_FF\[71\]_CLK
*2393 ANTENNA_i_FF\[72\]_CLK
*2394 ANTENNA_i_FF\[73\]_CLK
*2395 ANTENNA_i_FF\[74\]_CLK
*2396 ANTENNA_i_FF\[75\]_CLK
*2397 ANTENNA_i_FF\[76\]_CLK
*2398 ANTENNA_i_FF\[77\]_CLK
*2399 ANTENNA_i_FF\[77\]_D
*2400 ANTENNA_i_FF\[78\]_CLK
*2401 ANTENNA_i_FF\[79\]_CLK
*2402 ANTENNA_i_FF\[7\]_CLK
*2403 ANTENNA_i_FF\[7\]_D
*2404 ANTENNA_i_FF\[80\]_CLK
*2405 ANTENNA_i_FF\[81\]_CLK
*2406 ANTENNA_i_FF\[82\]_CLK
*2407 ANTENNA_i_FF\[83\]_CLK
*2408 ANTENNA_i_FF\[84\]_CLK
*2409 ANTENNA_i_FF\[85\]_CLK
*2410 ANTENNA_i_FF\[86\]_CLK
*2411 ANTENNA_i_FF\[87\]_CLK
*2412 ANTENNA_i_FF\[88\]_CLK
*2413 ANTENNA_i_FF\[88\]_D
*2414 ANTENNA_i_FF\[89\]_CLK
*2415 ANTENNA_i_FF\[89\]_D
*2416 ANTENNA_i_FF\[8\]_CLK
*2417 ANTENNA_i_FF\[90\]_CLK
*2418 ANTENNA_i_FF\[90\]_D
*2419 ANTENNA_i_FF\[91\]_CLK
*2420 ANTENNA_i_FF\[91\]_D
*2421 ANTENNA_i_FF\[92\]_CLK
*2422 ANTENNA_i_FF\[92\]_D
*2423 ANTENNA_i_FF\[93\]_CLK
*2424 ANTENNA_i_FF\[93\]_D
*2425 ANTENNA_i_FF\[94\]_CLK
*2426 ANTENNA_i_FF\[94\]_D
*2427 ANTENNA_i_FF\[95\]_CLK
*2428 ANTENNA_i_FF\[95\]_D
*2429 ANTENNA_i_FF\[96\]_CLK
*2430 ANTENNA_i_FF\[97\]_CLK
*2431 ANTENNA_i_FF\[97\]_D
*2432 ANTENNA_i_FF\[98\]_CLK
*2433 ANTENNA_i_FF\[99\]_CLK
*2434 ANTENNA_i_FF\[9\]_CLK
*2435 ANTENNA_i_FF\[9\]_D
*2436 ANTENNA_o_BUF\[0\]_I
*2437 ANTENNA_o_BUF\[102\]_I
*2438 ANTENNA_o_BUF\[103\]_I
*2439 ANTENNA_o_BUF\[104\]_I
*2440 ANTENNA_o_BUF\[106\]_I
*2441 ANTENNA_o_BUF\[107\]_I
*2442 ANTENNA_o_BUF\[108\]_I
*2443 ANTENNA_o_BUF\[109\]_I
*2444 ANTENNA_o_BUF\[10\]_I
*2445 ANTENNA_o_BUF\[110\]_I
*2446 ANTENNA_o_BUF\[111\]_I
*2447 ANTENNA_o_BUF\[112\]_I
*2448 ANTENNA_o_BUF\[113\]_I
*2449 ANTENNA_o_BUF\[114\]_I
*2450 ANTENNA_o_BUF\[115\]_I
*2451 ANTENNA_o_BUF\[116\]_I
*2452 ANTENNA_o_BUF\[117\]_I
*2453 ANTENNA_o_BUF\[118\]_I
*2454 ANTENNA_o_BUF\[119\]_I
*2455 ANTENNA_o_BUF\[11\]_I
*2456 ANTENNA_o_BUF\[120\]_I
*2457 ANTENNA_o_BUF\[121\]_I
*2458 ANTENNA_o_BUF\[122\]_I
*2459 ANTENNA_o_BUF\[123\]_I
*2460 ANTENNA_o_BUF\[124\]_I
*2461 ANTENNA_o_BUF\[125\]_I
*2462 ANTENNA_o_BUF\[126\]_I
*2463 ANTENNA_o_BUF\[127\]_I
*2464 ANTENNA_o_BUF\[128\]_I
*2465 ANTENNA_o_BUF\[129\]_I
*2466 ANTENNA_o_BUF\[12\]_I
*2467 ANTENNA_o_BUF\[130\]_I
*2468 ANTENNA_o_BUF\[131\]_I
*2469 ANTENNA_o_BUF\[132\]_I
*2470 ANTENNA_o_BUF\[133\]_I
*2471 ANTENNA_o_BUF\[134\]_I
*2472 ANTENNA_o_BUF\[13\]_I
*2473 ANTENNA_o_BUF\[140\]_I
*2474 ANTENNA_o_BUF\[141\]_I
*2475 ANTENNA_o_BUF\[142\]_I
*2476 ANTENNA_o_BUF\[143\]_I
*2477 ANTENNA_o_BUF\[145\]_I
*2478 ANTENNA_o_BUF\[146\]_I
*2479 ANTENNA_o_BUF\[147\]_I
*2480 ANTENNA_o_BUF\[148\]_I
*2481 ANTENNA_o_BUF\[149\]_I
*2482 ANTENNA_o_BUF\[14\]_I
*2483 ANTENNA_o_BUF\[150\]_I
*2484 ANTENNA_o_BUF\[151\]_I
*2485 ANTENNA_o_BUF\[152\]_I
*2486 ANTENNA_o_BUF\[153\]_I
*2487 ANTENNA_o_BUF\[154\]_I
*2488 ANTENNA_o_BUF\[155\]_I
*2489 ANTENNA_o_BUF\[156\]_I
*2490 ANTENNA_o_BUF\[157\]_I
*2491 ANTENNA_o_BUF\[158\]_I
*2492 ANTENNA_o_BUF\[159\]_I
*2493 ANTENNA_o_BUF\[15\]_I
*2494 ANTENNA_o_BUF\[160\]_I
*2495 ANTENNA_o_BUF\[161\]_I
*2496 ANTENNA_o_BUF\[162\]_I
*2497 ANTENNA_o_BUF\[163\]_I
*2498 ANTENNA_o_BUF\[164\]_I
*2499 ANTENNA_o_BUF\[165\]_I
*2500 ANTENNA_o_BUF\[166\]_I
*2501 ANTENNA_o_BUF\[167\]_I
*2502 ANTENNA_o_BUF\[168\]_I
*2503 ANTENNA_o_BUF\[169\]_I
*2504 ANTENNA_o_BUF\[16\]_I
*2505 ANTENNA_o_BUF\[170\]_I
*2506 ANTENNA_o_BUF\[171\]_I
*2507 ANTENNA_o_BUF\[172\]_I
*2508 ANTENNA_o_BUF\[173\]_I
*2509 ANTENNA_o_BUF\[175\]_I
*2510 ANTENNA_o_BUF\[17\]_I
*2511 ANTENNA_o_BUF\[19\]_I
*2512 ANTENNA_o_BUF\[1\]_I
*2513 ANTENNA_o_BUF\[20\]_I
*2514 ANTENNA_o_BUF\[21\]_I
*2515 ANTENNA_o_BUF\[22\]_I
*2516 ANTENNA_o_BUF\[2\]_I
*2517 ANTENNA_o_BUF\[30\]_I
*2518 ANTENNA_o_BUF\[31\]_I
*2519 ANTENNA_o_BUF\[32\]_I
*2520 ANTENNA_o_BUF\[33\]_I
*2521 ANTENNA_o_BUF\[34\]_I
*2522 ANTENNA_o_BUF\[35\]_I
*2523 ANTENNA_o_BUF\[36\]_I
*2524 ANTENNA_o_BUF\[37\]_I
*2525 ANTENNA_o_BUF\[38\]_I
*2526 ANTENNA_o_BUF\[39\]_I
*2527 ANTENNA_o_BUF\[3\]_I
*2528 ANTENNA_o_BUF\[40\]_I
*2529 ANTENNA_o_BUF\[41\]_I
*2530 ANTENNA_o_BUF\[47\]_I
*2531 ANTENNA_o_BUF\[48\]_I
*2532 ANTENNA_o_BUF\[4\]_I
*2533 ANTENNA_o_BUF\[53\]_I
*2534 ANTENNA_o_BUF\[54\]_I
*2535 ANTENNA_o_BUF\[55\]_I
*2536 ANTENNA_o_BUF\[56\]_I
*2537 ANTENNA_o_BUF\[57\]_I
*2538 ANTENNA_o_BUF\[58\]_I
*2539 ANTENNA_o_BUF\[59\]_I
*2540 ANTENNA_o_BUF\[5\]_I
*2541 ANTENNA_o_BUF\[60\]_I
*2542 ANTENNA_o_BUF\[61\]_I
*2543 ANTENNA_o_BUF\[62\]_I
*2544 ANTENNA_o_BUF\[63\]_I
*2545 ANTENNA_o_BUF\[64\]_I
*2546 ANTENNA_o_BUF\[65\]_I
*2547 ANTENNA_o_BUF\[66\]_I
*2548 ANTENNA_o_BUF\[67\]_I
*2549 ANTENNA_o_BUF\[68\]_I
*2550 ANTENNA_o_BUF\[69\]_I
*2551 ANTENNA_o_BUF\[6\]_I
*2552 ANTENNA_o_BUF\[70\]_I
*2553 ANTENNA_o_BUF\[71\]_I
*2554 ANTENNA_o_BUF\[72\]_I
*2555 ANTENNA_o_BUF\[73\]_I
*2556 ANTENNA_o_BUF\[74\]_I
*2557 ANTENNA_o_BUF\[75\]_I
*2558 ANTENNA_o_BUF\[76\]_I
*2559 ANTENNA_o_BUF\[77\]_I
*2560 ANTENNA_o_BUF\[78\]_I
*2561 ANTENNA_o_BUF\[79\]_I
*2562 ANTENNA_o_BUF\[7\]_I
*2563 ANTENNA_o_BUF\[80\]_I
*2564 ANTENNA_o_BUF\[81\]_I
*2565 ANTENNA_o_BUF\[82\]_I
*2566 ANTENNA_o_BUF\[83\]_I
*2567 ANTENNA_o_BUF\[84\]_I
*2568 ANTENNA_o_BUF\[85\]_I
*2569 ANTENNA_o_BUF\[86\]_I
*2570 ANTENNA_o_BUF\[87\]_I
*2571 ANTENNA_o_BUF\[88\]_I
*2572 ANTENNA_o_BUF\[89\]_I
*2573 ANTENNA_o_BUF\[8\]_I
*2574 ANTENNA_o_BUF\[90\]_I
*2575 ANTENNA_o_BUF\[91\]_I
*2576 ANTENNA_o_BUF\[92\]_I
*2577 ANTENNA_o_BUF\[93\]_I
*2578 ANTENNA_o_BUF\[94\]_I
*2579 ANTENNA_o_BUF\[95\]_I
*2580 ANTENNA_o_BUF\[96\]_I
*2581 ANTENNA_o_BUF\[97\]_I
*2582 ANTENNA_o_BUF\[98\]_I
*2583 ANTENNA_o_BUF\[9\]_I
*2584 ANTENNA_o_FF\[0\]_CLK
*2585 ANTENNA_o_FF\[100\]_CLK
*2586 ANTENNA_o_FF\[101\]_CLK
*2587 ANTENNA_o_FF\[102\]_CLK
*2588 ANTENNA_o_FF\[103\]_CLK