*SPEF "ieee 1481-1999"
*DESIGN "user_proj_example"
*DATE "11:11:11 Fri 11 11, 1111"
*VENDOR "OpenRCX"
*PROGRAM "Parallel Extraction"
*VERSION "1.0"
*DESIGN_FLOW "NAME_SCOPE LOCAL" "PIN_CAP NONE"
*DIVIDER /
*DELIMITER :
*BUS_DELIMITER []
*T_UNIT 1 NS
*C_UNIT 1 PF
*R_UNIT 1 OHM
*L_UNIT 1 HENRY

*NAME_MAP
*1 io_in[0]
*2 io_in[10]
*3 io_in[11]
*4 io_in[12]
*5 io_in[13]
*6 io_in[14]
*7 io_in[15]
*8 io_in[16]
*9 io_in[17]
*10 io_in[18]
*11 io_in[19]
*12 io_in[1]
*13 io_in[20]
*14 io_in[21]
*15 io_in[22]
*16 io_in[23]
*17 io_in[24]
*18 io_in[25]
*19 io_in[26]
*20 io_in[27]
*21 io_in[28]
*22 io_in[29]
*23 io_in[2]
*24 io_in[30]
*25 io_in[31]
*26 io_in[32]
*27 io_in[33]
*28 io_in[34]
*29 io_in[35]
*30 io_in[36]
*31 io_in[37]
*32 io_in[3]
*33 io_in[4]
*34 io_in[5]
*35 io_in[6]
*36 io_in[7]
*37 io_in[8]
*38 io_in[9]
*39 io_oeb[0]
*40 io_oeb[10]
*41 io_oeb[11]
*42 io_oeb[12]
*43 io_oeb[13]
*44 io_oeb[14]
*45 io_oeb[15]
*46 io_oeb[16]
*47 io_oeb[17]
*48 io_oeb[18]
*49 io_oeb[19]
*50 io_oeb[1]
*51 io_oeb[20]
*52 io_oeb[21]
*53 io_oeb[22]
*54 io_oeb[23]
*55 io_oeb[24]
*56 io_oeb[25]
*57 io_oeb[26]
*58 io_oeb[27]
*59 io_oeb[28]
*60 io_oeb[29]
*61 io_oeb[2]
*62 io_oeb[30]
*63 io_oeb[31]
*64 io_oeb[32]
*65 io_oeb[33]
*66 io_oeb[34]
*67 io_oeb[35]
*68 io_oeb[36]
*69 io_oeb[37]
*70 io_oeb[3]
*71 io_oeb[4]
*72 io_oeb[5]
*73 io_oeb[6]
*74 io_oeb[7]
*75 io_oeb[8]
*76 io_oeb[9]
*77 io_out[0]
*78 io_out[10]
*79 io_out[11]
*80 io_out[12]
*81 io_out[13]
*82 io_out[14]
*83 io_out[15]
*84 io_out[16]
*85 io_out[17]
*86 io_out[18]
*87 io_out[19]
*88 io_out[1]
*89 io_out[20]
*90 io_out[21]
*91 io_out[22]
*92 io_out[23]
*93 io_out[24]
*94 io_out[25]
*95 io_out[26]
*96 io_out[27]
*97 io_out[28]
*98 io_out[29]
*99 io_out[2]
*100 io_out[30]
*101 io_out[31]
*102 io_out[32]
*103 io_out[33]
*104 io_out[34]
*105 io_out[35]
*106 io_out[36]
*107 io_out[37]
*108 io_out[3]
*109 io_out[4]
*110 io_out[5]
*111 io_out[6]
*112 io_out[7]
*113 io_out[8]
*114 io_out[9]
*115 irq[0]
*116 irq[1]
*117 irq[2]
*118 la_data_in[0]
*119 la_data_in[10]
*120 la_data_in[11]
*121 la_data_in[12]
*122 la_data_in[13]
*123 la_data_in[14]
*124 la_data_in[15]
*125 la_data_in[16]
*126 la_data_in[17]
*127 la_data_in[18]
*128 la_data_in[19]
*129 la_data_in[1]
*130 la_data_in[20]
*131 la_data_in[21]
*132 la_data_in[22]
*133 la_data_in[23]
*134 la_data_in[24]
*135 la_data_in[25]
*136 la_data_in[26]
*137 la_data_in[27]
*138 la_data_in[28]
*139 la_data_in[29]
*140 la_data_in[2]
*141 la_data_in[30]
*142 la_data_in[31]
*143 la_data_in[32]
*144 la_data_in[33]
*145 la_data_in[34]
*146 la_data_in[35]
*147 la_data_in[36]
*148 la_data_in[37]
*149 la_data_in[38]
*150 la_data_in[39]
*151 la_data_in[3]
*152 la_data_in[40]
*153 la_data_in[41]
*154 la_data_in[42]
*155 la_data_in[43]
*156 la_data_in[44]
*157 la_data_in[45]
*158 la_data_in[46]
*159 la_data_in[47]
*160 la_data_in[48]
*161 la_data_in[49]
*162 la_data_in[4]
*163 la_data_in[50]
*164 la_data_in[51]
*165 la_data_in[52]
*166 la_data_in[53]
*167 la_data_in[54]
*168 la_data_in[55]
*169 la_data_in[56]
*170 la_data_in[57]
*171 la_data_in[58]
*172 la_data_in[59]
*173 la_data_in[5]
*174 la_data_in[60]
*175 la_data_in[61]
*176 la_data_in[62]
*177 la_data_in[63]
*178 la_data_in[6]
*179 la_data_in[7]
*180 la_data_in[8]
*181 la_data_in[9]
*182 la_data_out[0]
*183 la_data_out[10]
*184 la_data_out[11]
*185 la_data_out[12]
*186 la_data_out[13]
*187 la_data_out[14]
*188 la_data_out[15]
*189 la_data_out[16]
*190 la_data_out[17]
*191 la_data_out[18]
*192 la_data_out[19]
*193 la_data_out[1]
*194 la_data_out[20]
*195 la_data_out[21]
*196 la_data_out[22]
*197 la_data_out[23]
*198 la_data_out[24]
*199 la_data_out[25]
*200 la_data_out[26]
*201 la_data_out[27]
*202 la_data_out[28]
*203 la_data_out[29]
*204 la_data_out[2]
*205 la_data_out[30]
*206 la_data_out[31]
*207 la_data_out[32]
*208 la_data_out[33]
*209 la_data_out[34]
*210 la_data_out[35]
*211 la_data_out[36]
*212 la_data_out[37]
*213 la_data_out[38]
*214 la_data_out[39]
*215 la_data_out[3]
*216 la_data_out[40]
*217 la_data_out[41]
*218 la_data_out[42]
*219 la_data_out[43]
*220 la_data_out[44]
*221 la_data_out[45]
*222 la_data_out[46]
*223 la_data_out[47]
*224 la_data_out[48]
*225 la_data_out[49]
*226 la_data_out[4]
*227 la_data_out[50]
*228 la_data_out[51]
*229 la_data_out[52]
*230 la_data_out[53]
*231 la_data_out[54]
*232 la_data_out[55]
*233 la_data_out[56]
*234 la_data_out[57]
*235 la_data_out[58]
*236 la_data_out[59]
*237 la_data_out[5]
*238 la_data_out[60]
*239 la_data_out[61]
*240 la_data_out[62]
*241 la_data_out[63]
*242 la_data_out[6]
*243 la_data_out[7]
*244 la_data_out[8]
*245 la_data_out[9]
*246 la_oenb[0]
*247 la_oenb[10]
*248 la_oenb[11]
*249 la_oenb[12]
*250 la_oenb[13]
*251 la_oenb[14]
*252 la_oenb[15]
*253 la_oenb[16]
*254 la_oenb[17]
*255 la_oenb[18]
*256 la_oenb[19]
*257 la_oenb[1]
*258 la_oenb[20]
*259 la_oenb[21]
*260 la_oenb[22]
*261 la_oenb[23]
*262 la_oenb[24]
*263 la_oenb[25]
*264 la_oenb[26]
*265 la_oenb[27]
*266 la_oenb[28]
*267 la_oenb[29]
*268 la_oenb[2]
*269 la_oenb[30]
*270 la_oenb[31]
*271 la_oenb[32]
*272 la_oenb[33]
*273 la_oenb[34]
*274 la_oenb[35]
*275 la_oenb[36]
*276 la_oenb[37]
*277 la_oenb[38]
*278 la_oenb[39]
*279 la_oenb[3]
*280 la_oenb[40]
*281 la_oenb[41]
*282 la_oenb[42]
*283 la_oenb[43]
*284 la_oenb[44]
*285 la_oenb[45]
*286 la_oenb[46]
*287 la_oenb[47]
*288 la_oenb[48]
*289 la_oenb[49]
*290 la_oenb[4]
*291 la_oenb[50]
*292 la_oenb[51]
*293 la_oenb[52]
*294 la_oenb[53]
*295 la_oenb[54]
*296 la_oenb[55]
*297 la_oenb[56]
*298 la_oenb[57]
*299 la_oenb[58]
*300 la_oenb[59]
*301 la_oenb[5]
*302 la_oenb[60]
*303 la_oenb[61]
*304 la_oenb[62]
*305 la_oenb[63]
*306 la_oenb[6]
*307 la_oenb[7]
*308 la_oenb[8]
*309 la_oenb[9]
*310 user_clock2
*313 wb_clk_i
*314 wb_rst_i
*315 wbs_ack_o
*316 wbs_adr_i[0]
*317 wbs_adr_i[10]
*318 wbs_adr_i[11]
*319 wbs_adr_i[12]
*320 wbs_adr_i[13]
*321 wbs_adr_i[14]
*322 wbs_adr_i[15]
*323 wbs_adr_i[16]
*324 wbs_adr_i[17]
*325 wbs_adr_i[18]
*326 wbs_adr_i[19]
*327 wbs_adr_i[1]
*328 wbs_adr_i[20]
*329 wbs_adr_i[21]
*330 wbs_adr_i[22]
*331 wbs_adr_i[23]
*332 wbs_adr_i[24]
*333 wbs_adr_i[25]
*334 wbs_adr_i[26]
*335 wbs_adr_i[27]
*336 wbs_adr_i[28]
*337 wbs_adr_i[29]
*338 wbs_adr_i[2]
*339 wbs_adr_i[30]
*340 wbs_adr_i[31]
*341 wbs_adr_i[3]
*342 wbs_adr_i[4]
*343 wbs_adr_i[5]
*344 wbs_adr_i[6]
*345 wbs_adr_i[7]
*346 wbs_adr_i[8]
*347 wbs_adr_i[9]
*348 wbs_cyc_i
*349 wbs_dat_i[0]
*350 wbs_dat_i[10]
*351 wbs_dat_i[11]
*352 wbs_dat_i[12]
*353 wbs_dat_i[13]
*354 wbs_dat_i[14]
*355 wbs_dat_i[15]
*356 wbs_dat_i[16]
*357 wbs_dat_i[17]
*358 wbs_dat_i[18]
*359 wbs_dat_i[19]
*360 wbs_dat_i[1]
*361 wbs_dat_i[20]
*362 wbs_dat_i[21]
*363 wbs_dat_i[22]
*364 wbs_dat_i[23]
*365 wbs_dat_i[24]
*366 wbs_dat_i[25]
*367 wbs_dat_i[26]
*368 wbs_dat_i[27]
*369 wbs_dat_i[28]
*370 wbs_dat_i[29]
*371 wbs_dat_i[2]
*372 wbs_dat_i[30]
*373 wbs_dat_i[31]
*374 wbs_dat_i[3]
*375 wbs_dat_i[4]
*376 wbs_dat_i[5]
*377 wbs_dat_i[6]
*378 wbs_dat_i[7]
*379 wbs_dat_i[8]
*380 wbs_dat_i[9]
*381 wbs_dat_o[0]
*382 wbs_dat_o[10]
*383 wbs_dat_o[11]
*384 wbs_dat_o[12]
*385 wbs_dat_o[13]
*386 wbs_dat_o[14]
*387 wbs_dat_o[15]
*388 wbs_dat_o[16]
*389 wbs_dat_o[17]
*390 wbs_dat_o[18]
*391 wbs_dat_o[19]
*392 wbs_dat_o[1]
*393 wbs_dat_o[20]
*394 wbs_dat_o[21]
*395 wbs_dat_o[22]
*396 wbs_dat_o[23]
*397 wbs_dat_o[24]
*398 wbs_dat_o[25]
*399 wbs_dat_o[26]
*400 wbs_dat_o[27]
*401 wbs_dat_o[28]
*402 wbs_dat_o[29]
*403 wbs_dat_o[2]
*404 wbs_dat_o[30]
*405 wbs_dat_o[31]
*406 wbs_dat_o[3]
*407 wbs_dat_o[4]
*408 wbs_dat_o[5]
*409 wbs_dat_o[6]
*410 wbs_dat_o[7]
*411 wbs_dat_o[8]
*412 wbs_dat_o[9]
*413 wbs_sel_i[0]
*414 wbs_sel_i[1]
*415 wbs_sel_i[2]
*416 wbs_sel_i[3]
*417 wbs_stb_i
*418 wbs_we_i
*419 buf_i\[0\]
*420 buf_i\[100\]
*421 buf_i\[101\]
*422 buf_i\[102\]
*423 buf_i\[103\]
*424 buf_i\[104\]
*425 buf_i\[105\]
*426 buf_i\[106\]
*427 buf_i\[107\]
*428 buf_i\[108\]
*429 buf_i\[109\]
*430 buf_i\[10\]
*431 buf_i\[110\]
*432 buf_i\[111\]
*433 buf_i\[112\]
*434 buf_i\[113\]
*435 buf_i\[114\]
*436 buf_i\[115\]
*437 buf_i\[116\]
*438 buf_i\[117\]
*439 buf_i\[118\]
*440 buf_i\[119\]
*441 buf_i\[11\]
*442 buf_i\[120\]
*443 buf_i\[121\]
*444 buf_i\[122\]
*445 buf_i\[123\]
*446 buf_i\[124\]
*447 buf_i\[125\]
*448 buf_i\[126\]
*449 buf_i\[127\]
*450 buf_i\[128\]
*451 buf_i\[129\]
*452 buf_i\[12\]
*453 buf_i\[130\]
*454 buf_i\[131\]
*455 buf_i\[132\]
*456 buf_i\[133\]
*457 buf_i\[134\]
*458 buf_i\[135\]
*459 buf_i\[136\]
*460 buf_i\[137\]
*461 buf_i\[138\]
*462 buf_i\[139\]
*463 buf_i\[13\]
*464 buf_i\[140\]
*465 buf_i\[141\]
*466 buf_i\[142\]
*467 buf_i\[143\]
*468 buf_i\[144\]
*469 buf_i\[145\]
*470 buf_i\[146\]
*471 buf_i\[147\]
*472 buf_i\[148\]
*473 buf_i\[149\]
*474 buf_i\[14\]
*475 buf_i\[150\]
*476 buf_i\[151\]
*477 buf_i\[152\]
*478 buf_i\[153\]
*479 buf_i\[154\]
*480 buf_i\[155\]
*481 buf_i\[156\]
*482 buf_i\[157\]
*483 buf_i\[158\]
*484 buf_i\[159\]
*485 buf_i\[15\]
*486 buf_i\[160\]
*487 buf_i\[161\]
*488 buf_i\[162\]
*489 buf_i\[163\]
*490 buf_i\[164\]
*491 buf_i\[165\]
*492 buf_i\[166\]
*493 buf_i\[167\]
*494 buf_i\[168\]
*495 buf_i\[169\]
*496 buf_i\[16\]
*497 buf_i\[170\]
*498 buf_i\[171\]
*499 buf_i\[172\]
*500 buf_i\[173\]
*501 buf_i\[174\]
*502 buf_i\[175\]
*503 buf_i\[176\]
*504 buf_i\[177\]
*505 buf_i\[178\]
*506 buf_i\[179\]
*507 buf_i\[17\]
*508 buf_i\[180\]
*509 buf_i\[181\]
*510 buf_i\[182\]
*511 buf_i\[183\]
*512 buf_i\[184\]
*513 buf_i\[185\]
*514 buf_i\[186\]
*515 buf_i\[187\]
*516 buf_i\[188\]
*517 buf_i\[189\]
*518 buf_i\[18\]
*519 buf_i\[190\]
*520 buf_i\[191\]
*521 buf_i\[192\]
*522 buf_i\[193\]
*523 buf_i\[194\]
*524 buf_i\[195\]
*525 buf_i\[196\]
*526 buf_i\[197\]
*527 buf_i\[198\]
*528 buf_i\[199\]
*529 buf_i\[19\]
*530 buf_i\[1\]
*531 buf_i\[200\]
*532 buf_i\[201\]
*533 buf_i\[202\]
*534 buf_i\[203\]
*535 buf_i\[204\]
*536 buf_i\[205\]
*537 buf_i\[206\]
*538 buf_i\[207\]
*539 buf_i\[208\]
*540 buf_i\[209\]
*541 buf_i\[20\]
*542 buf_i\[210\]
*543 buf_i\[211\]
*544 buf_i\[212\]
*545 buf_i\[213\]
*546 buf_i\[214\]
*547 buf_i\[215\]
*548 buf_i\[216\]
*549 buf_i\[217\]
*550 buf_i\[218\]
*551 buf_i\[219\]
*552 buf_i\[21\]
*553 buf_i\[220\]
*554 buf_i\[221\]
*555 buf_i\[222\]
*556 buf_i\[223\]
*557 buf_i\[224\]
*558 buf_i\[225\]
*559 buf_i\[226\]
*560 buf_i\[227\]
*561 buf_i\[228\]
*562 buf_i\[229\]
*563 buf_i\[22\]
*564 buf_i\[230\]
*565 buf_i\[231\]
*566 buf_i\[232\]
*567 buf_i\[233\]
*568 buf_i\[234\]
*569 buf_i\[235\]
*570 buf_i\[236\]
*571 buf_i\[23\]
*572 buf_i\[24\]
*573 buf_i\[25\]
*574 buf_i\[26\]
*575 buf_i\[27\]
*576 buf_i\[28\]
*577 buf_i\[29\]
*578 buf_i\[2\]
*579 buf_i\[30\]
*580 buf_i\[31\]
*581 buf_i\[32\]
*582 buf_i\[33\]
*583 buf_i\[34\]
*584 buf_i\[35\]
*585 buf_i\[36\]
*586 buf_i\[37\]
*587 buf_i\[38\]
*588 buf_i\[39\]
*589 buf_i\[3\]
*590 buf_i\[40\]
*591 buf_i\[41\]
*592 buf_i\[42\]
*593 buf_i\[43\]
*594 buf_i\[44\]
*595 buf_i\[45\]
*596 buf_i\[46\]
*597 buf_i\[47\]
*598 buf_i\[48\]
*599 buf_i\[49\]
*600 buf_i\[4\]
*601 buf_i\[50\]
*602 buf_i\[51\]
*603 buf_i\[52\]
*604 buf_i\[53\]
*605 buf_i\[54\]
*606 buf_i\[55\]
*607 buf_i\[56\]
*608 buf_i\[57\]
*609 buf_i\[58\]
*610 buf_i\[59\]
*611 buf_i\[5\]
*612 buf_i\[60\]
*613 buf_i\[61\]
*614 buf_i\[62\]
*615 buf_i\[63\]
*616 buf_i\[64\]
*617 buf_i\[65\]
*618 buf_i\[66\]
*619 buf_i\[67\]
*620 buf_i\[68\]
*621 buf_i\[69\]
*622 buf_i\[6\]
*623 buf_i\[70\]
*624 buf_i\[71\]
*625 buf_i\[72\]
*626 buf_i\[73\]
*627 buf_i\[74\]
*628 buf_i\[75\]
*629 buf_i\[76\]
*630 buf_i\[77\]
*631 buf_i\[78\]
*632 buf_i\[79\]
*633 buf_i\[7\]
*634 buf_i\[80\]
*635 buf_i\[81\]
*636 buf_i\[82\]
*637 buf_i\[83\]
*638 buf_i\[84\]
*639 buf_i\[85\]
*640 buf_i\[86\]
*641 buf_i\[87\]
*642 buf_i\[88\]
*643 buf_i\[89\]
*644 buf_i\[8\]
*645 buf_i\[90\]
*646 buf_i\[91\]
*647 buf_i\[92\]
*648 buf_i\[93\]
*649 buf_i\[94\]
*650 buf_i\[95\]
*651 buf_i\[96\]
*652 buf_i\[97\]
*653 buf_i\[98\]
*654 buf_i\[99\]
*655 buf_i\[9\]
*656 buf_i_q\[0\]
*657 buf_i_q\[100\]
*658 buf_i_q\[101\]
*659 buf_i_q\[102\]
*660 buf_i_q\[103\]
*661 buf_i_q\[104\]
*662 buf_i_q\[105\]
*663 buf_i_q\[106\]
*664 buf_i_q\[107\]
*665 buf_i_q\[108\]
*666 buf_i_q\[109\]
*667 buf_i_q\[10\]
*668 buf_i_q\[110\]
*669 buf_i_q\[111\]
*670 buf_i_q\[112\]
*671 buf_i_q\[113\]
*672 buf_i_q\[114\]
*673 buf_i_q\[115\]
*674 buf_i_q\[116\]
*675 buf_i_q\[117\]
*676 buf_i_q\[118\]
*677 buf_i_q\[119\]
*678 buf_i_q\[11\]
*679 buf_i_q\[120\]
*680 buf_i_q\[121\]
*681 buf_i_q\[122\]
*682 buf_i_q\[123\]
*683 buf_i_q\[124\]
*684 buf_i_q\[125\]
*685 buf_i_q\[126\]
*686 buf_i_q\[127\]
*687 buf_i_q\[128\]
*688 buf_i_q\[129\]
*689 buf_i_q\[12\]
*690 buf_i_q\[130\]
*691 buf_i_q\[131\]
*692 buf_i_q\[132\]
*693 buf_i_q\[133\]
*694 buf_i_q\[134\]
*695 buf_i_q\[135\]
*696 buf_i_q\[136\]
*697 buf_i_q\[137\]
*698 buf_i_q\[138\]
*699 buf_i_q\[139\]
*700 buf_i_q\[13\]
*701 buf_i_q\[140\]
*702 buf_i_q\[141\]
*703 buf_i_q\[142\]
*704 buf_i_q\[143\]
*705 buf_i_q\[144\]
*706 buf_i_q\[145\]
*707 buf_i_q\[146\]
*708 buf_i_q\[147\]
*709 buf_i_q\[148\]
*710 buf_i_q\[149\]
*711 buf_i_q\[14\]
*712 buf_i_q\[150\]
*713 buf_i_q\[151\]
*714 buf_i_q\[152\]
*715 buf_i_q\[153\]
*716 buf_i_q\[154\]
*717 buf_i_q\[155\]
*718 buf_i_q\[156\]
*719 buf_i_q\[157\]
*720 buf_i_q\[158\]
*721 buf_i_q\[159\]
*722 buf_i_q\[15\]
*723 buf_i_q\[160\]
*724 buf_i_q\[161\]
*725 buf_i_q\[162\]
*726 buf_i_q\[163\]
*727 buf_i_q\[164\]
*728 buf_i_q\[165\]
*729 buf_i_q\[166\]
*730 buf_i_q\[167\]
*731 buf_i_q\[168\]
*732 buf_i_q\[169\]
*733 buf_i_q\[16\]
*734 buf_i_q\[170\]
*735 buf_i_q\[171\]
*736 buf_i_q\[172\]
*737 buf_i_q\[173\]
*738 buf_i_q\[174\]
*739 buf_i_q\[175\]
*740 buf_i_q\[176\]
*741 buf_i_q\[177\]
*742 buf_i_q\[178\]
*743 buf_i_q\[179\]
*744 buf_i_q\[17\]
*745 buf_i_q\[180\]
*746 buf_i_q\[181\]
*747 buf_i_q\[182\]
*748 buf_i_q\[183\]
*749 buf_i_q\[184\]
*750 buf_i_q\[185\]
*751 buf_i_q\[186\]
*752 buf_i_q\[187\]
*753 buf_i_q\[188\]
*754 buf_i_q\[189\]
*755 buf_i_q\[18\]
*756 buf_i_q\[190\]
*757 buf_i_q\[191\]
*758 buf_i_q\[192\]
*759 buf_i_q\[193\]
*760 buf_i_q\[194\]
*761 buf_i_q\[195\]
*762 buf_i_q\[196\]
*763 buf_i_q\[197\]
*764 buf_i_q\[198\]
*765 buf_i_q\[199\]
*766 buf_i_q\[19\]
*767 buf_i_q\[1\]
*768 buf_i_q\[200\]
*769 buf_i_q\[201\]
*770 buf_i_q\[202\]
*771 buf_i_q\[203\]
*772 buf_i_q\[204\]
*773 buf_i_q\[205\]
*774 buf_i_q\[206\]
*775 buf_i_q\[207\]
*776 buf_i_q\[208\]
*777 buf_i_q\[209\]
*778 buf_i_q\[20\]
*779 buf_i_q\[210\]
*780 buf_i_q\[211\]
*781 buf_i_q\[212\]
*782 buf_i_q\[213\]
*783 buf_i_q\[214\]
*784 buf_i_q\[215\]
*785 buf_i_q\[216\]
*786 buf_i_q\[217\]
*787 buf_i_q\[218\]
*788 buf_i_q\[219\]
*789 buf_i_q\[21\]
*790 buf_i_q\[220\]
*791 buf_i_q\[221\]
*792 buf_i_q\[222\]
*793 buf_i_q\[223\]
*794 buf_i_q\[224\]
*795 buf_i_q\[225\]
*796 buf_i_q\[226\]
*797 buf_i_q\[227\]
*798 buf_i_q\[228\]
*799 buf_i_q\[229\]
*800 buf_i_q\[22\]
*801 buf_i_q\[230\]
*802 buf_i_q\[231\]
*803 buf_i_q\[232\]
*804 buf_i_q\[233\]
*805 buf_i_q\[234\]
*806 buf_i_q\[235\]
*807 buf_i_q\[236\]
*808 buf_i_q\[23\]
*809 buf_i_q\[24\]
*810 buf_i_q\[25\]
*811 buf_i_q\[26\]
*812 buf_i_q\[27\]
*813 buf_i_q\[28\]
*814 buf_i_q\[29\]
*815 buf_i_q\[2\]
*816 buf_i_q\[30\]
*817 buf_i_q\[31\]
*818 buf_i_q\[32\]
*819 buf_i_q\[33\]
*820 buf_i_q\[34\]
*821 buf_i_q\[35\]
*822 buf_i_q\[36\]
*823 buf_i_q\[37\]
*824 buf_i_q\[38\]
*825 buf_i_q\[39\]
*826 buf_i_q\[3\]
*827 buf_i_q\[40\]
*828 buf_i_q\[41\]
*829 buf_i_q\[42\]
*830 buf_i_q\[43\]
*831 buf_i_q\[44\]
*832 buf_i_q\[45\]
*833 buf_i_q\[46\]
*834 buf_i_q\[47\]
*835 buf_i_q\[48\]
*836 buf_i_q\[49\]
*837 buf_i_q\[4\]
*838 buf_i_q\[50\]
*839 buf_i_q\[51\]
*840 buf_i_q\[52\]
*841 buf_i_q\[53\]
*842 buf_i_q\[54\]
*843 buf_i_q\[55\]
*844 buf_i_q\[56\]
*845 buf_i_q\[57\]
*846 buf_i_q\[58\]
*847 buf_i_q\[59\]
*848 buf_i_q\[5\]
*849 buf_i_q\[60\]
*850 buf_i_q\[61\]
*851 buf_i_q\[62\]
*852 buf_i_q\[63\]
*853 buf_i_q\[64\]
*854 buf_i_q\[65\]
*855 buf_i_q\[66\]
*856 buf_i_q\[67\]
*857 buf_i_q\[68\]
*858 buf_i_q\[69\]
*859 buf_i_q\[6\]
*860 buf_i_q\[70\]
*861 buf_i_q\[71\]
*862 buf_i_q\[72\]
*863 buf_i_q\[73\]
*864 buf_i_q\[74\]
*865 buf_i_q\[75\]
*866 buf_i_q\[76\]
*867 buf_i_q\[77\]
*868 buf_i_q\[78\]
*869 buf_i_q\[79\]
*870 buf_i_q\[7\]
*871 buf_i_q\[80\]
*872 buf_i_q\[81\]
*873 buf_i_q\[82\]
*874 buf_i_q\[83\]
*875 buf_i_q\[84\]
*876 buf_i_q\[85\]
*877 buf_i_q\[86\]
*878 buf_i_q\[87\]
*879 buf_i_q\[88\]
*880 buf_i_q\[89\]
*881 buf_i_q\[8\]
*882 buf_i_q\[90\]
*883 buf_i_q\[91\]
*884 buf_i_q\[92\]
*885 buf_i_q\[93\]
*886 buf_i_q\[94\]
*887 buf_i_q\[95\]
*888 buf_i_q\[96\]
*889 buf_i_q\[97\]
*890 buf_i_q\[98\]
*891 buf_i_q\[99\]
*892 buf_i_q\[9\]
*893 clk
*894 const_zero\[0\]_1
*895 const_zero\[100\]_1
*896 const_zero\[101\]_1
*897 const_zero\[102\]_1
*898 const_zero\[103\]_1
*899 const_zero\[104\]_1
*900 const_zero\[105\]_1
*901 const_zero\[106\]_1
*902 const_zero\[107\]_1
*903 const_zero\[108\]_1
*904 const_zero\[109\]_1
*905 const_zero\[10\]_1
*906 const_zero\[110\]_1
*907 const_zero\[111\]_1
*908 const_zero\[112\]_1
*909 const_zero\[113\]_1
*910 const_zero\[114\]_1
*911 const_zero\[115\]_1
*912 const_zero\[116\]_1
*913 const_zero\[117\]_1
*914 const_zero\[118\]_1
*915 const_zero\[119\]_1
*916 const_zero\[11\]_1
*917 const_zero\[120\]_1
*918 const_zero\[121\]_1
*919 const_zero\[122\]_1
*920 const_zero\[123\]_1
*921 const_zero\[124\]_1
*922 const_zero\[125\]_1
*923 const_zero\[126\]_1
*924 const_zero\[127\]_1
*925 const_zero\[128\]_1
*926 const_zero\[129\]_1
*927 const_zero\[12\]_1
*928 const_zero\[130\]_1
*929 const_zero\[131\]_1
*930 const_zero\[132\]_1
*931 const_zero\[133\]_1
*932 const_zero\[134\]_1
*933 const_zero\[135\]_1
*934 const_zero\[136\]_1
*935 const_zero\[137\]_1
*936 const_zero\[138\]_1
*937 const_zero\[139\]_1
*938 const_zero\[13\]_1
*939 const_zero\[140\]_1
*940 const_zero\[141\]_1
*941 const_zero\[142\]_1
*942 const_zero\[143\]_1
*943 const_zero\[144\]_1
*944 const_zero\[145\]_1
*945 const_zero\[146\]_1
*946 const_zero\[147\]_1
*947 const_zero\[148\]_1
*948 const_zero\[149\]_1
*949 const_zero\[14\]_1
*950 const_zero\[150\]_1
*951 const_zero\[151\]_1
*952 const_zero\[152\]_1
*953 const_zero\[153\]_1
*954 const_zero\[154\]_1
*955 const_zero\[155\]_1
*956 const_zero\[156\]_1
*957 const_zero\[157\]_1
*958 const_zero\[158\]_1
*959 const_zero\[159\]_1
*960 const_zero\[15\]_1
*961 const_zero\[160\]_1
*962 const_zero\[161\]_1
*963 const_zero\[162\]_1
*964 const_zero\[163\]_1
*965 const_zero\[164\]_1
*966 const_zero\[165\]_1
*967 const_zero\[166\]_1
*968 const_zero\[167\]_1
*969 const_zero\[168\]_1
*970 const_zero\[169\]_1
*971 const_zero\[16\]_1
*972 const_zero\[170\]_1
*973 const_zero\[171\]_1
*974 const_zero\[172\]_1
*975 const_zero\[173\]_1
*976 const_zero\[174\]_1
*977 const_zero\[175\]_1
*978 const_zero\[17\]_1
*979 const_zero\[18\]_1
*980 const_zero\[19\]_1
*981 const_zero\[1\]_1
*982 const_zero\[20\]_1
*983 const_zero\[21\]_1
*984 const_zero\[22\]_1
*985 const_zero\[23\]_1
*986 const_zero\[24\]_1
*987 const_zero\[25\]_1
*988 const_zero\[26\]_1
*989 const_zero\[27\]_1
*990 const_zero\[28\]_1
*991 const_zero\[29\]_1
*992 const_zero\[2\]_1
*993 const_zero\[30\]_1
*994 const_zero\[31\]_1
*995 const_zero\[32\]_1
*996 const_zero\[33\]_1
*997 const_zero\[34\]_1
*998 const_zero\[35\]_1
*999 const_zero\[36\]_1
*1000 const_zero\[37\]_1
*1001 const_zero\[38\]_1
*1002 const_zero\[39\]_1
*1003 const_zero\[3\]_1
*1004 const_zero\[40\]_1
*1005 const_zero\[41\]_1
*1006 const_zero\[42\]_1
*1007 const_zero\[43\]_1
*1008 const_zero\[44\]_1
*1009 const_zero\[45\]_1
*1010 const_zero\[46\]_1
*1011 const_zero\[47\]_1
*1012 const_zero\[48\]_1
*1013 const_zero\[49\]_1
*1014 const_zero\[4\]_1
*1015 const_zero\[50\]_1
*1016 const_zero\[51\]_1
*1017 const_zero\[52\]_1
*1018 const_zero\[53\]_1
*1019 const_zero\[54\]_1
*1020 const_zero\[55\]_1
*1021 const_zero\[56\]_1
*1022 const_zero\[57\]_1
*1023 const_zero\[58\]_1
*1024 const_zero\[59\]_1
*1025 const_zero\[5\]_1
*1026 const_zero\[60\]_1
*1027 const_zero\[61\]_1
*1028 const_zero\[62\]_1
*1029 const_zero\[63\]_1
*1030 const_zero\[64\]_1
*1031 const_zero\[65\]_1
*1032 const_zero\[66\]_1
*1033 const_zero\[67\]_1
*1034 const_zero\[68\]_1
*1035 const_zero\[69\]_1
*1036 const_zero\[6\]_1
*1037 const_zero\[70\]_1
*1038 const_zero\[71\]_1
*1039 const_zero\[72\]_1
*1040 const_zero\[73\]_1
*1041 const_zero\[74\]_1
*1042 const_zero\[75\]_1
*1043 const_zero\[76\]_1
*1044 const_zero\[77\]_1
*1045 const_zero\[78\]_1
*1046 const_zero\[79\]_1
*1047 const_zero\[7\]_1
*1048 const_zero\[80\]_1
*1049 const_zero\[81\]_1
*1050 const_zero\[82\]_1
*1051 const_zero\[83\]_1
*1052 const_zero\[84\]_1
*1053 const_zero\[85\]_1
*1054 const_zero\[86\]_1
*1055 const_zero\[87\]_1
*1056 const_zero\[88\]_1
*1057 const_zero\[89\]_1
*1058 const_zero\[8\]_1
*1059 const_zero\[90\]_1
*1060 const_zero\[91\]_1
*1061 const_zero\[92\]_1
*1062 const_zero\[93\]_1
*1063 const_zero\[94\]_1
*1064 const_zero\[95\]_1
*1065 const_zero\[96\]_1
*1066 const_zero\[97\]_1
*1067 const_zero\[98\]_1
*1068 const_zero\[99\]_1
*1069 const_zero\[9\]_1
*1070 o_q\[0\]
*1071 o_q\[100\]
*1072 o_q\[101\]
*1073 o_q\[102\]
*1074 o_q\[103\]
*1075 o_q\[104\]
*1076 o_q\[105\]
*1077 o_q\[106\]
*1078 o_q\[107\]
*1079 o_q\[108\]
*1080 o_q\[109\]
*1081 o_q\[10\]
*1082 o_q\[110\]
*1083 o_q\[111\]
*1084 o_q\[112\]
*1085 o_q\[113\]
*1086 o_q\[114\]
*1087 o_q\[115\]
*1088 o_q\[116\]
*1089 o_q\[117\]
*1090 o_q\[118\]
*1091 o_q\[119\]
*1092 o_q\[11\]
*1093 o_q\[120\]
*1094 o_q\[121\]
*1095 o_q\[122\]
*1096 o_q\[123\]
*1097 o_q\[124\]
*1098 o_q\[125\]
*1099 o_q\[126\]
*1100 o_q\[127\]
*1101 o_q\[128\]
*1102 o_q\[129\]
*1103 o_q\[12\]
*1104 o_q\[130\]
*1105 o_q\[131\]
*1106 o_q\[132\]
*1107 o_q\[133\]
*1108 o_q\[134\]
*1109 o_q\[135\]
*1110 o_q\[136\]
*1111 o_q\[137\]
*1112 o_q\[138\]
*1113 o_q\[139\]
*1114 o_q\[13\]
*1115 o_q\[140\]
*1116 o_q\[141\]
*1117 o_q\[142\]
*1118 o_q\[143\]
*1119 o_q\[144\]
*1120 o_q\[145\]
*1121 o_q\[146\]
*1122 o_q\[147\]
*1123 o_q\[148\]
*1124 o_q\[149\]
*1125 o_q\[14\]
*1126 o_q\[150\]
*1127 o_q\[151\]
*1128 o_q\[152\]
*1129 o_q\[153\]
*1130 o_q\[154\]
*1131 o_q\[155\]
*1132 o_q\[156\]
*1133 o_q\[157\]
*1134 o_q\[158\]
*1135 o_q\[159\]
*1136 o_q\[15\]
*1137 o_q\[160\]
*1138 o_q\[161\]
*1139 o_q\[162\]
*1140 o_q\[163\]
*1141 o_q\[164\]
*1142 o_q\[165\]
*1143 o_q\[166\]
*1144 o_q\[167\]
*1145 o_q\[168\]
*1146 o_q\[169\]
*1147 o_q\[16\]
*1148 o_q\[170\]
*1149 o_q\[171\]
*1150 o_q\[172\]
*1151 o_q\[173\]
*1152 o_q\[174\]
*1153 o_q\[175\]
*1154 o_q\[17\]
*1155 o_q\[18\]
*1156 o_q\[19\]
*1157 o_q\[1\]
*1158 o_q\[20\]
*1159 o_q\[21\]
*1160 o_q\[22\]
*1161 o_q\[23\]
*1162 o_q\[24\]
*1163 o_q\[25\]
*1164 o_q\[26\]
*1165 o_q\[27\]
*1166 o_q\[28\]
*1167 o_q\[29\]
*1168 o_q\[2\]
*1169 o_q\[30\]
*1170 o_q\[31\]
*1171 o_q\[32\]
*1172 o_q\[33\]
*1173 o_q\[34\]
*1174 o_q\[35\]
*1175 o_q\[36\]
*1176 o_q\[37\]
*1177 o_q\[38\]
*1178 o_q\[39\]
*1179 o_q\[3\]
*1180 o_q\[40\]
*1181 o_q\[41\]
*1182 o_q\[42\]
*1183 o_q\[43\]
*1184 o_q\[44\]
*1185 o_q\[45\]
*1186 o_q\[46\]
*1187 o_q\[47\]
*1188 o_q\[48\]
*1189 o_q\[49\]
*1190 o_q\[4\]
*1191 o_q\[50\]
*1192 o_q\[51\]
*1193 o_q\[52\]
*1194 o_q\[53\]
*1195 o_q\[54\]
*1196 o_q\[55\]
*1197 o_q\[56\]
*1198 o_q\[57\]
*1199 o_q\[58\]
*1200 o_q\[59\]
*1201 o_q\[5\]
*1202 o_q\[60\]
*1203 o_q\[61\]
*1204 o_q\[62\]
*1205 o_q\[63\]
*1206 o_q\[64\]
*1207 o_q\[65\]
*1208 o_q\[66\]
*1209 o_q\[67\]
*1210 o_q\[68\]
*1211 o_q\[69\]
*1212 o_q\[6\]
*1213 o_q\[70\]
*1214 o_q\[71\]
*1215 o_q\[72\]
*1216 o_q\[73\]
*1217 o_q\[74\]
*1218 o_q\[75\]
*1219 o_q\[76\]
*1220 o_q\[77\]
*1221 o_q\[78\]
*1222 o_q\[79\]
*1223 o_q\[7\]
*1224 o_q\[80\]
*1225 o_q\[81\]
*1226 o_q\[82\]
*1227 o_q\[83\]
*1228 o_q\[84\]
*1229 o_q\[85\]
*1230 o_q\[86\]
*1231 o_q\[87\]
*1232 o_q\[88\]
*1233 o_q\[89\]
*1234 o_q\[8\]
*1235 o_q\[90\]
*1236 o_q\[91\]
*1237 o_q\[92\]
*1238 o_q\[93\]
*1239 o_q\[94\]
*1240 o_q\[95\]
*1241 o_q\[96\]
*1242 o_q\[97\]
*1243 o_q\[98\]
*1244 o_q\[99\]
*1245 o_q\[9\]
*1246 o_q_dly\[0\]
*1247 o_q_dly\[100\]
*1248 o_q_dly\[101\]
*1249 o_q_dly\[102\]
*1250 o_q_dly\[103\]
*1251 o_q_dly\[104\]
*1252 o_q_dly\[105\]
*1253 o_q_dly\[106\]
*1254 o_q_dly\[107\]
*1255 o_q_dly\[108\]
*1256 o_q_dly\[109\]
*1257 o_q_dly\[10\]
*1258 o_q_dly\[110\]
*1259 o_q_dly\[111\]
*1260 o_q_dly\[112\]
*1261 o_q_dly\[113\]
*1262 o_q_dly\[114\]
*1263 o_q_dly\[115\]
*1264 o_q_dly\[116\]
*1265 o_q_dly\[117\]
*1266 o_q_dly\[118\]
*1267 o_q_dly\[119\]
*1268 o_q_dly\[11\]
*1269 o_q_dly\[120\]
*1270 o_q_dly\[121\]
*1271 o_q_dly\[122\]
*1272 o_q_dly\[123\]
*1273 o_q_dly\[124\]
*1274 o_q_dly\[125\]
*1275 o_q_dly\[126\]
*1276 o_q_dly\[127\]
*1277 o_q_dly\[128\]
*1278 o_q_dly\[129\]
*1279 o_q_dly\[12\]
*1280 o_q_dly\[130\]
*1281 o_q_dly\[131\]
*1282 o_q_dly\[132\]
*1283 o_q_dly\[133\]
*1284 o_q_dly\[134\]
*1285 o_q_dly\[135\]
*1286 o_q_dly\[136\]
*1287 o_q_dly\[137\]
*1288 o_q_dly\[138\]
*1289 o_q_dly\[139\]
*1290 o_q_dly\[13\]
*1291 o_q_dly\[140\]
*1292 o_q_dly\[141\]
*1293 o_q_dly\[142\]
*1294 o_q_dly\[143\]
*1295 o_q_dly\[144\]
*1296 o_q_dly\[145\]
*1297 o_q_dly\[146\]
*1298 o_q_dly\[147\]
*1299 o_q_dly\[148\]
*1300 o_q_dly\[149\]
*1301 o_q_dly\[14\]
*1302 o_q_dly\[150\]
*1303 o_q_dly\[151\]
*1304 o_q_dly\[152\]
*1305 o_q_dly\[153\]
*1306 o_q_dly\[154\]
*1307 o_q_dly\[155\]
*1308 o_q_dly\[156\]
*1309 o_q_dly\[157\]
*1310 o_q_dly\[158\]
*1311 o_q_dly\[159\]
*1312 o_q_dly\[15\]
*1313 o_q_dly\[160\]
*1314 o_q_dly\[161\]
*1315 o_q_dly\[162\]
*1316 o_q_dly\[163\]
*1317 o_q_dly\[164\]
*1318 o_q_dly\[165\]
*1319 o_q_dly\[166\]
*1320 o_q_dly\[167\]
*1321 o_q_dly\[168\]
*1322 o_q_dly\[169\]
*1323 o_q_dly\[16\]
*1324 o_q_dly\[170\]
*1325 o_q_dly\[171\]
*1326 o_q_dly\[172\]
*1327 o_q_dly\[173\]
*1328 o_q_dly\[174\]
*1329 o_q_dly\[175\]
*1330 o_q_dly\[17\]
*1331 o_q_dly\[18\]
*1332 o_q_dly\[19\]
*1333 o_q_dly\[1\]
*1334 o_q_dly\[20\]
*1335 o_q_dly\[21\]
*1336 o_q_dly\[22\]
*1337 o_q_dly\[23\]
*1338 o_q_dly\[24\]
*1339 o_q_dly\[25\]
*1340 o_q_dly\[26\]
*1341 o_q_dly\[27\]
*1342 o_q_dly\[28\]
*1343 o_q_dly\[29\]
*1344 o_q_dly\[2\]
*1345 o_q_dly\[30\]
*1346 o_q_dly\[31\]
*1347 o_q_dly\[32\]
*1348 o_q_dly\[33\]
*1349 o_q_dly\[34\]
*1350 o_q_dly\[35\]
*1351 o_q_dly\[36\]
*1352 o_q_dly\[37\]
*1353 o_q_dly\[38\]
*1354 o_q_dly\[39\]
*1355 o_q_dly\[3\]
*1356 o_q_dly\[40\]
*1357 o_q_dly\[41\]
*1358 o_q_dly\[42\]
*1359 o_q_dly\[43\]
*1360 o_q_dly\[44\]
*1361 o_q_dly\[45\]
*1362 o_q_dly\[46\]
*1363 o_q_dly\[47\]
*1364 o_q_dly\[48\]
*1365 o_q_dly\[49\]
*1366 o_q_dly\[4\]
*1367 o_q_dly\[50\]
*1368 o_q_dly\[51\]
*1369 o_q_dly\[52\]
*1370 o_q_dly\[53\]
*1371 o_q_dly\[54\]
*1372 o_q_dly\[55\]
*1373 o_q_dly\[56\]
*1374 o_q_dly\[57\]
*1375 o_q_dly\[58\]
*1376 o_q_dly\[59\]
*1377 o_q_dly\[5\]
*1378 o_q_dly\[60\]
*1379 o_q_dly\[61\]
*1380 o_q_dly\[62\]
*1381 o_q_dly\[63\]
*1382 o_q_dly\[64\]
*1383 o_q_dly\[65\]
*1384 o_q_dly\[66\]
*1385 o_q_dly\[67\]
*1386 o_q_dly\[68\]
*1387 o_q_dly\[69\]
*1388 o_q_dly\[6\]
*1389 o_q_dly\[70\]
*1390 o_q_dly\[71\]
*1391 o_q_dly\[72\]
*1392 o_q_dly\[73\]
*1393 o_q_dly\[74\]
*1394 o_q_dly\[75\]
*1395 o_q_dly\[76\]
*1396 o_q_dly\[77\]
*1397 o_q_dly\[78\]
*1398 o_q_dly\[79\]
*1399 o_q_dly\[7\]
*1400 o_q_dly\[80\]
*1401 o_q_dly\[81\]
*1402 o_q_dly\[82\]
*1403 o_q_dly\[83\]
*1404 o_q_dly\[84\]
*1405 o_q_dly\[85\]
*1406 o_q_dly\[86\]
*1407 o_q_dly\[87\]
*1408 o_q_dly\[88\]
*1409 o_q_dly\[89\]
*1410 o_q_dly\[8\]
*1411 o_q_dly\[90\]
*1412 o_q_dly\[91\]
*1413 o_q_dly\[92\]
*1414 o_q_dly\[93\]
*1415 o_q_dly\[94\]
*1416 o_q_dly\[95\]
*1417 o_q_dly\[96\]
*1418 o_q_dly\[97\]
*1419 o_q_dly\[98\]
*1420 o_q_dly\[99\]
*1421 o_q_dly\[9\]
*1422 rst
*1423 usr_clk2
*1424 ANTENNA_CLK_BUF\[0\]_I
*1425 ANTENNA_CLK_BUF\[1\]_I
*1426 ANTENNA_i_BUF\[0\]_I
*1427 ANTENNA_i_BUF\[100\]_I
*1428 ANTENNA_i_BUF\[101\]_I
*1429 ANTENNA_i_BUF\[102\]_I
*1430 ANTENNA_i_BUF\[103\]_I
*1431 ANTENNA_i_BUF\[104\]_I
*1432 ANTENNA_i_BUF\[105\]_I
*1433 ANTENNA_i_BUF\[106\]_I
*1434 ANTENNA_i_BUF\[107\]_I
*1435 ANTENNA_i_BUF\[108\]_I
*1436 ANTENNA_i_BUF\[109\]_I
*1437 ANTENNA_i_BUF\[10\]_I
*1438 ANTENNA_i_BUF\[110\]_I
*1439 ANTENNA_i_BUF\[111\]_I
*1440 ANTENNA_i_BUF\[112\]_I
*1441 ANTENNA_i_BUF\[113\]_I
*1442 ANTENNA_i_BUF\[114\]_I
*1443 ANTENNA_i_BUF\[115\]_I
*1444 ANTENNA_i_BUF\[116\]_I
*1445 ANTENNA_i_BUF\[117\]_I
*1446 ANTENNA_i_BUF\[118\]_I
*1447 ANTENNA_i_BUF\[119\]_I
*1448 ANTENNA_i_BUF\[11\]_I
*1449 ANTENNA_i_BUF\[120\]_I
*1450 ANTENNA_i_BUF\[121\]_I
*1451 ANTENNA_i_BUF\[122\]_I
*1452 ANTENNA_i_BUF\[123\]_I
*1453 ANTENNA_i_BUF\[124\]_I
*1454 ANTENNA_i_BUF\[125\]_I
*1455 ANTENNA_i_BUF\[126\]_I
*1456 ANTENNA_i_BUF\[127\]_I
*1457 ANTENNA_i_BUF\[128\]_I
*1458 ANTENNA_i_BUF\[129\]_I
*1459 ANTENNA_i_BUF\[12\]_I
*1460 ANTENNA_i_BUF\[130\]_I
*1461 ANTENNA_i_BUF\[131\]_I
*1462 ANTENNA_i_BUF\[132\]_I
*1463 ANTENNA_i_BUF\[133\]_I
*1464 ANTENNA_i_BUF\[134\]_I
*1465 ANTENNA_i_BUF\[135\]_I
*1466 ANTENNA_i_BUF\[136\]_I
*1467 ANTENNA_i_BUF\[137\]_I
*1468 ANTENNA_i_BUF\[138\]_I
*1469 ANTENNA_i_BUF\[139\]_I
*1470 ANTENNA_i_BUF\[13\]_I
*1471 ANTENNA_i_BUF\[140\]_I
*1472 ANTENNA_i_BUF\[141\]_I
*1473 ANTENNA_i_BUF\[142\]_I
*1474 ANTENNA_i_BUF\[143\]_I
*1475 ANTENNA_i_BUF\[144\]_I
*1476 ANTENNA_i_BUF\[145\]_I
*1477 ANTENNA_i_BUF\[146\]_I
*1478 ANTENNA_i_BUF\[147\]_I
*1479 ANTENNA_i_BUF\[148\]_I
*1480 ANTENNA_i_BUF\[149\]_I
*1481 ANTENNA_i_BUF\[14\]_I
*1482 ANTENNA_i_BUF\[150\]_I
*1483 ANTENNA_i_BUF\[151\]_I
*1484 ANTENNA_i_BUF\[152\]_I
*1485 ANTENNA_i_BUF\[153\]_I
*1486 ANTENNA_i_BUF\[154\]_I
*1487 ANTENNA_i_BUF\[155\]_I
*1488 ANTENNA_i_BUF\[156\]_I
*1489 ANTENNA_i_BUF\[157\]_I
*1490 ANTENNA_i_BUF\[158\]_I
*1491 ANTENNA_i_BUF\[159\]_I
*1492 ANTENNA_i_BUF\[15\]_I
*1493 ANTENNA_i_BUF\[160\]_I
*1494 ANTENNA_i_BUF\[161\]_I
*1495 ANTENNA_i_BUF\[162\]_I
*1496 ANTENNA_i_BUF\[163\]_I
*1497 ANTENNA_i_BUF\[164\]_I
*1498 ANTENNA_i_BUF\[165\]_I
*1499 ANTENNA_i_BUF\[166\]_I
*1500 ANTENNA_i_BUF\[167\]_I
*1501 ANTENNA_i_BUF\[168\]_I
*1502 ANTENNA_i_BUF\[169\]_I
*1503 ANTENNA_i_BUF\[16\]_I
*1504 ANTENNA_i_BUF\[170\]_I
*1505 ANTENNA_i_BUF\[171\]_I
*1506 ANTENNA_i_BUF\[172\]_I
*1507 ANTENNA_i_BUF\[173\]_I
*1508 ANTENNA_i_BUF\[174\]_I
*1509 ANTENNA_i_BUF\[175\]_I
*1510 ANTENNA_i_BUF\[176\]_I
*1511 ANTENNA_i_BUF\[177\]_I
*1512 ANTENNA_i_BUF\[178\]_I
*1513 ANTENNA_i_BUF\[179\]_I
*1514 ANTENNA_i_BUF\[17\]_I
*1515 ANTENNA_i_BUF\[180\]_I
*1516 ANTENNA_i_BUF\[181\]_I