*SPEF "IEEE 1481-1999"
*DESIGN "user_project_wrapper"
*DATE "Sun Dec 11 11:31:16 2022"
*VENDOR "Synopsys Inc."
*PROGRAM "StarRC"
*VERSION "T-2022.03-SP3"
*DESIGN_FLOW "PIN_CAP NONE" "NAME_SCOPE LOCAL"
*DIVIDER /
*DELIMITER :
*BUS_DELIMITER []
*T_UNIT 1.0 NS
*C_UNIT 1.0 FF
*R_UNIT 1.0 OHM
*L_UNIT 1.0 HENRY

// COMMENTS

// CORNER_NAME 
// OPERATING_TEMPERATURE -40
// GLOBAL_TEMPERATURE 25
// TCAD_GRD_FILE /home/passant/gf180_timing/caravel-gf180mcu/scripts/gf180-tech/gf180mcu_1p5m_1tm_9k_sp_smim_OPTB_bst.nxtgrd
//   TCAD_TIME_STAMP Tue Dec 26 17:55:23 2017
//   TCADGRD_VERSION 75
// galaxy_comments_begin
//   local_nodeid
// galaxy_comments_end

*NAME_MAP
*419 io_in[0]
*420 io_in[10]
*421 io_in[11]
*422 io_in[12]
*423 io_in[13]
*424 io_in[14]
*425 io_in[15]
*426 io_in[16]
*427 io_in[17]
*428 io_in[18]
*429 io_in[19]
*430 io_in[1]
*431 io_in[20]
*432 io_in[21]
*433 io_in[22]
*434 io_in[23]
*435 io_in[24]
*436 io_in[25]
*437 io_in[26]
*438 io_in[27]
*439 io_in[28]
*440 io_in[29]
*441 io_in[2]
*442 io_in[30]
*443 io_in[31]
*444 io_in[32]
*445 io_in[33]
*446 io_in[34]
*447 io_in[35]
*448 io_in[36]
*449 io_in[37]
*450 io_in[3]
*451 io_in[4]
*452 io_in[5]
*453 io_in[6]
*454 io_in[7]
*455 io_in[8]
*456 io_in[9]
*457 io_oeb[0]
*458 io_oeb[10]
*459 io_oeb[11]
*460 io_oeb[12]
*461 io_oeb[13]
*462 io_oeb[14]
*463 io_oeb[15]
*464 io_oeb[16]
*465 io_oeb[17]
*466 io_oeb[18]
*467 io_oeb[19]
*468 io_oeb[1]
*469 io_oeb[20]
*470 io_oeb[21]
*471 io_oeb[22]
*472 io_oeb[23]
*473 io_oeb[24]
*474 io_oeb[25]
*475 io_oeb[26]
*476 io_oeb[27]
*477 io_oeb[28]
*478 io_oeb[29]
*479 io_oeb[2]
*480 io_oeb[30]
*481 io_oeb[31]
*482 io_oeb[32]
*483 io_oeb[33]
*484 io_oeb[34]
*485 io_oeb[35]
*486 io_oeb[36]
*487 io_oeb[37]
*488 io_oeb[3]
*489 io_oeb[4]
*490 io_oeb[5]
*491 io_oeb[6]
*492 io_oeb[7]
*493 io_oeb[8]
*494 io_oeb[9]
*495 io_out[0]
*496 io_out[10]
*497 io_out[11]
*498 io_out[12]
*499 io_out[13]
*500 io_out[14]
*501 io_out[15]
*502 io_out[16]
*503 io_out[17]
*504 io_out[18]
*505 io_out[19]
*506 io_out[1]
*507 io_out[20]
*508 io_out[21]
*509 io_out[22]
*510 io_out[23]
*511 io_out[24]
*512 io_out[25]
*513 io_out[26]
*514 io_out[27]
*515 io_out[28]
*516 io_out[29]
*517 io_out[2]
*518 io_out[30]
*519 io_out[31]
*520 io_out[32]
*521 io_out[33]
*522 io_out[34]
*523 io_out[35]
*524 io_out[36]
*525 io_out[37]
*526 io_out[3]
*527 io_out[4]
*528 io_out[5]
*529 io_out[6]
*530 io_out[7]
*531 io_out[8]
*532 io_out[9]
*533 la_data_in[0]
*534 la_data_in[10]
*535 la_data_in[11]
*536 la_data_in[12]
*537 la_data_in[13]
*538 la_data_in[14]
*539 la_data_in[15]
*540 la_data_in[16]
*541 la_data_in[17]
*542 la_data_in[18]
*543 la_data_in[19]
*544 la_data_in[1]
*545 la_data_in[20]
*546 la_data_in[21]
*547 la_data_in[22]
*548 la_data_in[23]
*549 la_data_in[24]
*550 la_data_in[25]
*551 la_data_in[26]
*552 la_data_in[27]
*553 la_data_in[28]
*554 la_data_in[29]
*555 la_data_in[2]
*556 la_data_in[30]
*557 la_data_in[31]
*558 la_data_in[32]
*559 la_data_in[33]
*560 la_data_in[34]
*561 la_data_in[35]
*562 la_data_in[36]
*563 la_data_in[37]
*564 la_data_in[38]
*565 la_data_in[39]
*566 la_data_in[3]
*567 la_data_in[40]
*568 la_data_in[41]
*569 la_data_in[42]
*570 la_data_in[43]
*571 la_data_in[44]
*572 la_data_in[45]
*573 la_data_in[46]
*574 la_data_in[47]
*575 la_data_in[48]
*576 la_data_in[49]
*577 la_data_in[4]
*578 la_data_in[50]
*579 la_data_in[51]
*580 la_data_in[52]
*581 la_data_in[53]
*582 la_data_in[54]
*583 la_data_in[55]
*584 la_data_in[56]
*585 la_data_in[57]
*586 la_data_in[58]
*587 la_data_in[59]
*588 la_data_in[5]
*589 la_data_in[60]
*590 la_data_in[61]
*591 la_data_in[62]
*592 la_data_in[63]
*593 la_data_in[6]
*594 la_data_in[7]
*595 la_data_in[8]
*596 la_data_in[9]
*597 la_data_out[0]
*598 la_data_out[10]
*599 la_data_out[11]
*600 la_data_out[12]
*601 la_data_out[13]
*602 la_data_out[14]
*603 la_data_out[15]
*604 la_data_out[16]
*605 la_data_out[17]
*606 la_data_out[18]
*607 la_data_out[19]
*608 la_data_out[1]
*609 la_data_out[20]
*610 la_data_out[21]
*611 la_data_out[22]
*612 la_data_out[23]
*613 la_data_out[24]
*614 la_data_out[25]
*615 la_data_out[26]
*616 la_data_out[27]
*617 la_data_out[28]
*618 la_data_out[29]
*619 la_data_out[2]
*620 la_data_out[30]
*621 la_data_out[31]
*622 la_data_out[32]
*623 la_data_out[33]
*624 la_data_out[34]
*625 la_data_out[35]
*626 la_data_out[36]
*627 la_data_out[37]
*628 la_data_out[38]
*629 la_data_out[39]
*630 la_data_out[3]
*631 la_data_out[40]
*632 la_data_out[41]
*633 la_data_out[42]
*634 la_data_out[43]
*635 la_data_out[44]
*636 la_data_out[45]
*637 la_data_out[46]
*638 la_data_out[47]
*639 la_data_out[48]
*640 la_data_out[49]
*641 la_data_out[4]
*642 la_data_out[50]
*643 la_data_out[51]
*644 la_data_out[52]
*645 la_data_out[53]
*646 la_data_out[54]
*647 la_data_out[55]
*648 la_data_out[56]
*649 la_data_out[57]
*650 la_data_out[58]
*651 la_data_out[59]
*652 la_data_out[5]
*653 la_data_out[60]
*654 la_data_out[61]
*655 la_data_out[62]
*656 la_data_out[63]
*657 la_data_out[6]
*658 la_data_out[7]
*659 la_data_out[8]
*660 la_data_out[9]
*661 la_oenb[0]
*662 la_oenb[10]
*663 la_oenb[11]
*664 la_oenb[12]
*665 la_oenb[13]
*666 la_oenb[14]
*667 la_oenb[15]
*668 la_oenb[16]
*669 la_oenb[17]
*670 la_oenb[18]
*671 la_oenb[19]
*672 la_oenb[1]
*673 la_oenb[20]
*674 la_oenb[21]
*675 la_oenb[22]
*676 la_oenb[23]
*677 la_oenb[24]
*678 la_oenb[25]
*679 la_oenb[26]
*680 la_oenb[27]
*681 la_oenb[28]
*682 la_oenb[29]
*683 la_oenb[2]
*684 la_oenb[30]
*685 la_oenb[31]
*686 la_oenb[32]
*687 la_oenb[33]
*688 la_oenb[34]
*689 la_oenb[35]
*690 la_oenb[36]
*691 la_oenb[37]
*692 la_oenb[38]
*693 la_oenb[39]
*694 la_oenb[3]
*695 la_oenb[40]
*696 la_oenb[41]
*697 la_oenb[42]
*698 la_oenb[43]
*699 la_oenb[44]
*700 la_oenb[45]
*701 la_oenb[46]
*702 la_oenb[47]
*703 la_oenb[48]
*704 la_oenb[49]
*705 la_oenb[4]
*706 la_oenb[50]
*707 la_oenb[51]
*708 la_oenb[52]
*709 la_oenb[53]
*710 la_oenb[54]
*711 la_oenb[55]
*712 la_oenb[56]
*713 la_oenb[57]
*714 la_oenb[58]
*715 la_oenb[59]
*716 la_oenb[5]
*717 la_oenb[60]
*718 la_oenb[61]
*719 la_oenb[62]
*720 la_oenb[63]
*721 la_oenb[6]
*722 la_oenb[7]
*723 la_oenb[8]
*724 la_oenb[9]
*725 user_clock2
*726 user_irq[0]
*727 user_irq[1]
*728 user_irq[2]
*729 wb_clk_i
*730 wb_rst_i
*731 wbs_ack_o
*732 wbs_adr_i[0]
*733 wbs_adr_i[10]
*734 wbs_adr_i[11]
*735 wbs_adr_i[12]
*736 wbs_adr_i[13]
*737 wbs_adr_i[14]
*738 wbs_adr_i[15]
*739 wbs_adr_i[16]
*740 wbs_adr_i[17]
*741 wbs_adr_i[18]
*742 wbs_adr_i[19]
*743 wbs_adr_i[1]
*744 wbs_adr_i[20]
*745 wbs_adr_i[21]
*746 wbs_adr_i[22]
*747 wbs_adr_i[23]
*748 wbs_adr_i[24]
*749 wbs_adr_i[25]
*750 wbs_adr_i[26]
*751 wbs_adr_i[27]
*752 wbs_adr_i[28]
*753 wbs_adr_i[29]
*754 wbs_adr_i[2]
*755 wbs_adr_i[30]
*756 wbs_adr_i[31]
*757 wbs_adr_i[3]
*758 wbs_adr_i[4]
*759 wbs_adr_i[5]
*760 wbs_adr_i[6]
*761 wbs_adr_i[7]
*762 wbs_adr_i[8]
*763 wbs_adr_i[9]
*764 wbs_cyc_i
*765 wbs_dat_i[0]
*766 wbs_dat_i[10]
*767 wbs_dat_i[11]
*768 wbs_dat_i[12]
*769 wbs_dat_i[13]
*770 wbs_dat_i[14]
*771 wbs_dat_i[15]
*772 wbs_dat_i[16]
*773 wbs_dat_i[17]
*774 wbs_dat_i[18]
*775 wbs_dat_i[19]
*776 wbs_dat_i[1]
*777 wbs_dat_i[20]
*778 wbs_dat_i[21]
*779 wbs_dat_i[22]
*780 wbs_dat_i[23]
*781 wbs_dat_i[24]
*782 wbs_dat_i[25]
*783 wbs_dat_i[26]
*784 wbs_dat_i[27]
*785 wbs_dat_i[28]
*786 wbs_dat_i[29]
*787 wbs_dat_i[2]
*788 wbs_dat_i[30]
*789 wbs_dat_i[31]
*790 wbs_dat_i[3]
*791 wbs_dat_i[4]
*792 wbs_dat_i[5]
*793 wbs_dat_i[6]
*794 wbs_dat_i[7]
*795 wbs_dat_i[8]
*796 wbs_dat_i[9]
*797 wbs_dat_o[0]
*798 wbs_dat_o[10]
*799 wbs_dat_o[11]
*800 wbs_dat_o[12]
*801 wbs_dat_o[13]
*802 wbs_dat_o[14]
*803 wbs_dat_o[15]
*804 wbs_dat_o[16]
*805 wbs_dat_o[17]
*806 wbs_dat_o[18]
*807 wbs_dat_o[19]
*808 wbs_dat_o[1]
*809 wbs_dat_o[20]
*810 wbs_dat_o[21]
*811 wbs_dat_o[22]
*812 wbs_dat_o[23]
*813 wbs_dat_o[24]
*814 wbs_dat_o[25]
*815 wbs_dat_o[26]
*816 wbs_dat_o[27]
*817 wbs_dat_o[28]
*818 wbs_dat_o[29]
*819 wbs_dat_o[2]
*820 wbs_dat_o[30]
*821 wbs_dat_o[31]
*822 wbs_dat_o[3]
*823 wbs_dat_o[4]
*824 wbs_dat_o[5]
*825 wbs_dat_o[6]
*826 wbs_dat_o[7]
*827 wbs_dat_o[8]
*828 wbs_dat_o[9]
*829 wbs_sel_i[0]
*830 wbs_sel_i[1]
*831 wbs_sel_i[2]
*832 wbs_sel_i[3]
*833 wbs_stb_i
*834 wbs_we_i
*835 mprj
*1 io_in[0]
*2 io_in[10]
*3 io_in[11]
*4 io_in[12]
*5 io_in[13]
*6 io_in[14]
*7 io_in[15]
*8 io_in[16]
*9 io_in[17]
*10 io_in[18]
*11 io_in[19]
*12 io_in[1]
*13 io_in[20]
*14 io_in[21]
*15 io_in[22]
*16 io_in[23]
*17 io_in[24]
*18 io_in[25]
*19 io_in[26]
*20 io_in[27]
*21 io_in[28]
*22 io_in[29]
*23 io_in[2]
*24 io_in[30]
*25 io_in[31]
*26 io_in[32]
*27 io_in[33]
*28 io_in[34]
*29 io_in[35]
*30 io_in[36]
*31 io_in[37]
*32 io_in[3]
*33 io_in[4]
*34 io_in[5]
*35 io_in[6]
*36 io_in[7]
*37 io_in[8]
*38 io_in[9]
*39 io_oeb[0]
*40 io_oeb[10]
*41 io_oeb[11]
*42 io_oeb[12]
*43 io_oeb[13]
*44 io_oeb[14]
*45 io_oeb[15]
*46 io_oeb[16]
*47 io_oeb[17]
*48 io_oeb[18]
*49 io_oeb[19]
*50 io_oeb[1]
*51 io_oeb[20]
*52 io_oeb[21]
*53 io_oeb[22]
*54 io_oeb[23]
*55 io_oeb[24]
*56 io_oeb[25]
*57 io_oeb[26]
*58 io_oeb[27]
*59 io_oeb[28]
*60 io_oeb[29]
*61 io_oeb[2]
*62 io_oeb[30]
*63 io_oeb[31]
*64 io_oeb[32]
*65 io_oeb[33]
*66 io_oeb[34]
*67 io_oeb[35]
*68 io_oeb[36]
*69 io_oeb[37]
*70 io_oeb[3]
*71 io_oeb[4]
*72 io_oeb[5]
*73 io_oeb[6]
*74 io_oeb[7]
*75 io_oeb[8]
*76 io_oeb[9]
*77 io_out[0]
*78 io_out[10]
*79 io_out[11]
*80 io_out[12]
*81 io_out[13]
*82 io_out[14]
*83 io_out[15]
*84 io_out[16]
*85 io_out[17]
*86 io_out[18]
*87 io_out[19]
*88 io_out[1]
*89 io_out[20]
*90 io_out[21]
*91 io_out[22]
*92 io_out[23]
*93 io_out[24]
*94 io_out[25]
*95 io_out[26]
*96 io_out[27]
*97 io_out[28]
*98 io_out[29]
*99 io_out[2]
*100 io_out[30]
*101 io_out[31]
*102 io_out[32]
*103 io_out[33]
*104 io_out[34]
*105 io_out[35]
*106 io_out[36]
*107 io_out[37]
*108 io_out[3]
*109 io_out[4]
*110 io_out[5]
*111 io_out[6]
*112 io_out[7]
*113 io_out[8]
*114 io_out[9]
*115 la_data_in[0]
*116 la_data_in[10]
*117 la_data_in[11]
*118 la_data_in[12]
*119 la_data_in[13]
*120 la_data_in[14]
*121 la_data_in[15]
*122 la_data_in[16]
*123 la_data_in[17]
*124 la_data_in[18]
*125 la_data_in[19]
*126 la_data_in[1]
*127 la_data_in[20]
*128 la_data_in[21]
*129 la_data_in[22]
*130 la_data_in[23]
*131 la_data_in[24]
*132 la_data_in[25]
*133 la_data_in[26]
*134 la_data_in[27]
*135 la_data_in[28]
*136 la_data_in[29]
*137 la_data_in[2]
*138 la_data_in[30]
*139 la_data_in[31]
*140 la_data_in[32]
*141 la_data_in[33]
*142 la_data_in[34]
*143 la_data_in[35]
*144 la_data_in[36]
*145 la_data_in[37]
*146 la_data_in[38]
*147 la_data_in[39]
*148 la_data_in[3]
*149 la_data_in[40]
*150 la_data_in[41]
*151 la_data_in[42]
*152 la_data_in[43]
*153 la_data_in[44]
*154 la_data_in[45]
*155 la_data_in[46]
*156 la_data_in[47]
*157 la_data_in[48]
*158 la_data_in[49]
*159 la_data_in[4]
*160 la_data_in[50]
*161 la_data_in[51]
*162 la_data_in[52]
*163 la_data_in[53]
*164 la_data_in[54]
*165 la_data_in[55]
*166 la_data_in[56]
*167 la_data_in[57]
*168 la_data_in[58]
*169 la_data_in[59]
*170 la_data_in[5]
*171 la_data_in[60]
*172 la_data_in[61]
*173 la_data_in[62]
*174 la_data_in[63]
*175 la_data_in[6]
*176 la_data_in[7]
*177 la_data_in[8]
*178 la_data_in[9]
*179 la_data_out[0]
*180 la_data_out[10]
*181 la_data_out[11]
*182 la_data_out[12]
*183 la_data_out[13]
*184 la_data_out[14]
*185 la_data_out[15]
*186 la_data_out[16]
*187 la_data_out[17]
*188 la_data_out[18]
*189 la_data_out[19]
*190 la_data_out[1]
*191 la_data_out[20]
*192 la_data_out[21]
*193 la_data_out[22]
*194 la_data_out[23]
*195 la_data_out[24]
*196 la_data_out[25]
*197 la_data_out[26]
*198 la_data_out[27]
*199 la_data_out[28]
*200 la_data_out[29]
*201 la_data_out[2]
*202 la_data_out[30]
*203 la_data_out[31]
*204 la_data_out[32]
*205 la_data_out[33]
*206 la_data_out[34]
*207 la_data_out[35]
*208 la_data_out[36]
*209 la_data_out[37]
*210 la_data_out[38]
*211 la_data_out[39]
*212 la_data_out[3]
*213 la_data_out[40]
*214 la_data_out[41]
*215 la_data_out[42]
*216 la_data_out[43]
*217 la_data_out[44]
*218 la_data_out[45]
*219 la_data_out[46]
*220 la_data_out[47]
*221 la_data_out[48]
*222 la_data_out[49]
*223 la_data_out[4]
*224 la_data_out[50]
*225 la_data_out[51]
*226 la_data_out[52]
*227 la_data_out[53]
*228 la_data_out[54]
*229 la_data_out[55]
*230 la_data_out[56]
*231 la_data_out[57]
*232 la_data_out[58]
*233 la_data_out[59]
*234 la_data_out[5]
*235 la_data_out[60]
*236 la_data_out[61]
*237 la_data_out[62]
*238 la_data_out[63]
*239 la_data_out[6]
*240 la_data_out[7]
*241 la_data_out[8]
*242 la_data_out[9]
*243 la_oenb[0]
*244 la_oenb[10]
*245 la_oenb[11]
*246 la_oenb[12]
*247 la_oenb[13]
*248 la_oenb[14]
*249 la_oenb[15]
*250 la_oenb[16]
*251 la_oenb[17]
*252 la_oenb[18]
*253 la_oenb[19]
*254 la_oenb[1]
*255 la_oenb[20]
*256 la_oenb[21]
*257 la_oenb[22]
*258 la_oenb[23]
*259 la_oenb[24]
*260 la_oenb[25]
*261 la_oenb[26]
*262 la_oenb[27]
*263 la_oenb[28]
*264 la_oenb[29]
*265 la_oenb[2]
*266 la_oenb[30]
*267 la_oenb[31]
*268 la_oenb[32]
*269 la_oenb[33]
*270 la_oenb[34]
*271 la_oenb[35]
*272 la_oenb[36]
*273 la_oenb[37]
*274 la_oenb[38]
*275 la_oenb[39]
*276 la_oenb[3]
*277 la_oenb[40]
*278 la_oenb[41]
*279 la_oenb[42]
*280 la_oenb[43]
*281 la_oenb[44]
*282 la_oenb[45]
*283 la_oenb[46]
*284 la_oenb[47]
*285 la_oenb[48]
*286 la_oenb[49]
*287 la_oenb[4]
*288 la_oenb[50]
*289 la_oenb[51]
*290 la_oenb[52]
*291 la_oenb[53]
*292 la_oenb[54]
*293 la_oenb[55]
*294 la_oenb[56]
*295 la_oenb[57]
*296 la_oenb[58]
*297 la_oenb[59]
*298 la_oenb[5]
*299 la_oenb[60]
*300 la_oenb[61]
*301 la_oenb[62]
*302 la_oenb[63]
*303 la_oenb[6]
*304 la_oenb[7]
*305 la_oenb[8]
*306 la_oenb[9]
*307 user_clock2
*308 user_irq[0]
*309 user_irq[1]
*310 user_irq[2]
*313 wb_clk_i
*314 wb_rst_i
*315 wbs_ack_o
*316 wbs_adr_i[0]
*317 wbs_adr_i[10]
*318 wbs_adr_i[11]
*319 wbs_adr_i[12]
*320 wbs_adr_i[13]
*321 wbs_adr_i[14]
*322 wbs_adr_i[15]
*323 wbs_adr_i[16]
*324 wbs_adr_i[17]
*325 wbs_adr_i[18]
*326 wbs_adr_i[19]
*327 wbs_adr_i[1]
*328 wbs_adr_i[20]
*329 wbs_adr_i[21]
*330 wbs_adr_i[22]
*331 wbs_adr_i[23]
*332 wbs_adr_i[24]
*333 wbs_adr_i[25]
*334 wbs_adr_i[26]
*335 wbs_adr_i[27]
*336 wbs_adr_i[28]
*337 wbs_adr_i[29]
*338 wbs_adr_i[2]
*339 wbs_adr_i[30]
*340 wbs_adr_i[31]
*341 wbs_adr_i[3]
*342 wbs_adr_i[4]
*343 wbs_adr_i[5]
*344 wbs_adr_i[6]
*345 wbs_adr_i[7]
*346 wbs_adr_i[8]
*347 wbs_adr_i[9]
*348 wbs_cyc_i
*349 wbs_dat_i[0]
*350 wbs_dat_i[10]
*351 wbs_dat_i[11]
*352 wbs_dat_i[12]
*353 wbs_dat_i[13]
*354 wbs_dat_i[14]
*355 wbs_dat_i[15]
*356 wbs_dat_i[16]
*357 wbs_dat_i[17]
*358 wbs_dat_i[18]
*359 wbs_dat_i[19]
*360 wbs_dat_i[1]
*361 wbs_dat_i[20]
*362 wbs_dat_i[21]
*363 wbs_dat_i[22]
*364 wbs_dat_i[23]
*365 wbs_dat_i[24]
*366 wbs_dat_i[25]
*367 wbs_dat_i[26]
*368 wbs_dat_i[27]
*369 wbs_dat_i[28]
*370 wbs_dat_i[29]
*371 wbs_dat_i[2]
*372 wbs_dat_i[30]
*373 wbs_dat_i[31]
*374 wbs_dat_i[3]
*375 wbs_dat_i[4]
*376 wbs_dat_i[5]
*377 wbs_dat_i[6]
*378 wbs_dat_i[7]
*379 wbs_dat_i[8]
*380 wbs_dat_i[9]
*381 wbs_dat_o[0]
*382 wbs_dat_o[10]
*383 wbs_dat_o[11]
*384 wbs_dat_o[12]
*385 wbs_dat_o[13]
*386 wbs_dat_o[14]
*387 wbs_dat_o[15]
*388 wbs_dat_o[16]
*389 wbs_dat_o[17]
*390 wbs_dat_o[18]
*391 wbs_dat_o[19]
*392 wbs_dat_o[1]
*393 wbs_dat_o[20]
*394 wbs_dat_o[21]
*395 wbs_dat_o[22]
*396 wbs_dat_o[23]
*397 wbs_dat_o[24]
*398 wbs_dat_o[25]
*399 wbs_dat_o[26]
*400 wbs_dat_o[27]
*401 wbs_dat_o[28]
*402 wbs_dat_o[29]
*403 wbs_dat_o[2]
*404 wbs_dat_o[30]
*405 wbs_dat_o[31]
*406 wbs_dat_o[3]
*407 wbs_dat_o[4]
*408 wbs_dat_o[5]
*409 wbs_dat_o[6]
*410 wbs_dat_o[7]
*411 wbs_dat_o[8]
*412 wbs_dat_o[9]
*413 wbs_sel_i[0]
*414 wbs_sel_i[1]
*415 wbs_sel_i[2]
*416 wbs_sel_i[3]
*417 wbs_stb_i
*418 wbs_we_i

*PORTS

*419 I
*420 I
*421 I
*422 I
*423 I
*424 I
*425 I
*426 I
*427 I
*428 I
*429 I
*430 I
*431 I
*432 I
*433 I
*434 I
*435 I
*436 I
*437 I
*438 I
*439 I
*440 I
*441 I
*442 I
*443 I
*444 I
*445 I
*446 I
*447 I
*448 I
*449 I
*450 I
*451 I
*452 I
*453 I
*454 I
*455 I
*456 I
*457 O
*458 O
*459 O
*460 O
*461 O
*462 O
*463 O
*464 O
*465 O
*466 O
*467 O
*468 O
*469 O
*470 O
*471 O
*472 O
*473 O
*474 O
*475 O
*476 O
*477 O
*478 O
*479 O
*480 O
*481 O
*482 O
*483 O
*484 O
*485 O
*486 O
*487 O
*488 O
*489 O
*490 O
*491 O
*492 O
*493 O
*494 O
*495 O
*496 O
*497 O
*498 O
*499 O
*500 O
*501 O
*502 O
*503 O
*504 O
*505 O
*506 O
*507 O
*508 O
*509 O
*510 O
*511 O
*512 O
*513 O
*514 O
*515 O
*516 O
*517 O
*518 O
*519 O
*520 O
*521 O
*522 O
*523 O
*524 O
*525 O
*526 O
*527 O
*528 O
*529 O
*530 O
*531 O
*532 O
*533 I
*534 I
*535 I
*536 I
*537 I
*538 I
*539 I
*540 I
*541 I
*542 I
*543 I
*544 I
*545 I
*546 I
*547 I
*548 I
*549 I
*550 I
*551 I
*552 I
*553 I
*554 I
*555 I
*556 I
*557 I
*558 I
*559 I
*560 I
*561 I
*562 I
*563 I
*564 I
*565 I
*566 I
*567 I
*568 I
*569 I
*570 I
*571 I
*572 I
*573 I
*574 I
*575 I
*576 I
*577 I
*578 I
*579 I
*580 I
*581 I
*582 I
*583 I
*584 I
*585 I
*586 I
*587 I
*588 I
*589 I
*590 I
*591 I
*592 I
*593 I
*594 I
*595 I
*596 I
*597 O
*598 O
*599 O
*600 O
*601 O
*602 O
*603 O
*604 O
*605 O
*606 O
*607 O
*608 O
*609 O
*610 O
*611 O
*612 O
*613 O
*614 O
*615 O
*616 O
*617 O
*618 O
*619 O
*620 O
*621 O
*622 O
*623 O
*624 O
*625 O
*626 O
*627 O
*628 O
*629 O
*630 O
*631 O
*632 O
*633 O
*634 O
*635 O
*636 O
*637 O
*638 O
*639 O
*640 O
*641 O
*642 O
*643 O
*644 O
*645 O
*646 O
*647 O
*648 O
*649 O
*650 O
*651 O
*652 O
*653 O
*654 O
*655 O
*656 O
*657 O
*658 O
*659 O
*660 O
*661 I
*662 I
*663 I
*664 I
*665 I
*666 I
*667 I
*668 I
*669 I
*670 I
*671 I
*672 I
*673 I
*674 I
*675 I
*676 I
*677 I
*678 I
*679 I
*680 I
*681 I
*682 I
*683 I
*684 I
*685 I
*686 I
*687 I
*688 I
*689 I
*690 I
*691 I
*692 I
*693 I
*694 I
*695 I
*696 I
*697 I
*698 I
*699 I
*700 I
*701 I
*702 I
*703 I
*704 I
*705 I
*706 I
*707 I
*708 I
*709 I
*710 I
*711 I
*712 I
*713 I
*714 I
*715 I
*716 I
*717 I
*718 I
*719 I
*720 I
*721 I
*722 I
*723 I
*724 I
*725 I
*726 O
*727 O
*728 O
*729 I
*730 I
*731 O
*732 I
*733 I
*734 I
*735 I
*736 I
*737 I
*738 I
*739 I
*740 I
*741 I
*742 I
*743 I
*744 I
*745 I
*746 I
*747 I
*748 I
*749 I
*750 I
*751 I
*752 I
*753 I
*754 I
*755 I
*756 I
*757 I
*758 I
*759 I
*760 I
*761 I
*762 I
*763 I
*764 I
*765 I
*766 I
*767 I
*768 I
*769 I
*770 I
*771 I
*772 I
*773 I
*774 I
*775 I
*776 I
*777 I
*778 I
*779 I
*780 I
*781 I
*782 I
*783 I
*784 I
*785 I
*786 I
*787 I
*788 I
*789 I
*790 I
*791 I
*792 I
*793 I
*794 I
*795 I
*796 I
*797 O
*798 O
*799 O
*800 O
*801 O
*802 O
*803 O
*804 O
*805 O
*806 O
*807 O
*808 O
*809 O
*810 O
*811 O
*812 O
*813 O
*814 O
*815 O
*816 O
*817 O
*818 O
*819 O
*820 O
*821 O
*822 O
*823 O
*824 O
*825 O
*826 O
*827 O
*828 O
*829 I
*830 I
*831 I
*832 I
*833 I
*834 I

*D_NET *1 534.9

*CONN
*P *419 I *C 2997.6000 34.3700
*I *835:io_in[0] I *C 1182.0000 2290.0000

*CAP
1 *419 *430 32.5303
2 *1:5 *430 9.71861
3 *1:5 *12:5 98.4347
4 *1:5 *12:6 2.92011
5 *1:6 *12:6 53.3319
6 *835:io_in[0] *22:4 0.658235
7 *835:io_in[0] *24:2 5.88669
8 *835:io_in[0] *24:3 3.74211
9 *1:2 *24:3 58.4475
10 *835:io_in[0] *835:io_in[3] 6.72933
11 *835:io_in[0] *32:2 0.96505
12 *1:2 *835:io_in[3] 27.4504
13 *1:2 *32:2 47.5791
14 *1:3 *32:2 1.90997
15 *835:io_in[0] *63:5 4.16575
16 *1:2 *63:3 5.39788
17 *1:2 *63:5 1.46976
18 *419 32.9436
19 *835:io_in[0] 12.4352
20 *1:2 1.14526
21 *1:3 55.7132
22 *1:4 0.0527395
23 *1:5 45.2263
24 *1:6 26.0464

*RES
1 *419 *1:4 0.001
2 *419 *1:5 258.335
3 *835:io_in[0] *1:2 101.35
4 *1:2 *1:3 310.132
5 *1:3 *1:6 11.0892
6 *1:5 *1:6 252.533
*END

*D_NET *2 179.974

*CONN
*P *420 I *C 2997.6000 2033.0800
*I *835:io_in[10] I *C 1417.0800 2288.4400

*CAP
1 *835:io_in[10] *12:2 0.520252
2 *2:2 *12:2 1.63902
3 *835:io_in[10] *21:3 24.2638
4 *2:2 *21:3 12.5066
5 *835:io_in[10] *28:3 5.09426
6 *2:2 *28:3 5.19852
7 *2:2 *29:5 3.38325
8 *2:2 *30:5 0.96812
9 *835:io_in[10] *835:io_in[4] 1.64666
10 *835:io_in[10] *33:2 0.146508
11 *2:2 *33:2 8.87555
12 *835:io_in[10] *835:io_in[7] 0.0455754
13 *2:2 *65:3 0.576155
14 *2:2 *73:3 0.468463
15 *2:2 *75:2 0.0680901
16 *420 0.930571
17 *835:io_in[10] 13.8651
18 *2:2 56.7349
19 *2:3 43.0426
20 *2:4 0.0

*RES
1 *420 *2:3 4.26073
2 *835:io_in[10] *2:4 0.001
3 *835:io_in[10] *2:2 158.352
4 *2:2 *2:3 266.195
*END

*D_NET *3 186.936

*CONN
*P *421 I *C 2997.7800 2232.4400
*I *835:io_in[11] I *C 1440.7200 2290.0000

*CAP
1 *835:io_in[11] *25:3 0.227685
2 *835:io_in[11] *25:5 3.32508
3 *3:2 *25:3 4.42432
4 *3:2 *25:5 0.379992
5 *3:2 *835:io_in[35] 0.126657
6 *3:2 *29:5 0.206111
7 *3:2 *30:5 0.633648
8 *3:2 *835:io_in[37] 0.9169
9 *3:2 *31:6 1.4232
10 *835:io_in[11] *58:3 13.6644
11 *835:io_in[11] *58:5 2.9943
12 *3:2 *58:3 15.9188
13 *3:2 *58:5 4.5897
14 *835:io_in[11] *835:io_out[11] 1.89654
15 *835:io_in[11] *79:2 22.3847
16 *3:2 *79:2 38.2415
17 *3:2 *835:io_out[8] 0.167977
18 *3:2 *113:2 5.23788
19 *421 0.172039
20 *835:io_in[11] 14.886
21 *3:2 19.7347
22 *3:3 34.5084
23 *3:4 0.875008

*RES
1 *421 *3:4 0.001
2 *421 *3:3 1.39878
3 *835:io_in[11] *3:2 150.325
4 *3:2 *3:3 225.091
*END

*D_NET *4 115.788

*CONN
*P *422 I *C 2997.7800 2432.3600
*I *835:io_in[12] I *C 1464.2400 2290.0000

*CAP
1 *835:io_in[12] *835:io_oeb[10] 0.974042
2 *835:io_in[12] *835:io_oeb[12] 0.554598
3 *835:io_in[12] *835:io_oeb[7] 0.103453
4 *835:io_in[12] *87:2 1.86674
5 *422 0.168657
6 *835:io_in[12] 53.0251
7 *4:2 58.2202
8 *4:3 0.874959

*RES
1 *422 *4:3 0.001
2 *422 *4:2 1.02577
3 *835:io_in[12] *4:2 383.934
*END

*D_NET *5 162.153

*CONN
*P *423 I *C 2997.7800 2632.2800
*I *835:io_in[13] I *C 1487.7600 2290.0000

*CAP
1 *5:2 *6:2 5.86625
2 *5:4 *6:2 9.45218
3 *5:4 *6:3 3.12994
4 *5:3 *835:io_oeb[12] 0.073592
5 *5:3 *42:3 0.0237078
6 *5:2 *44:2 2.00285
7 *5:4 *44:2 1.2915
8 *5:3 *59:4 0.855953
9 *5:3 *67:3 0.00544926
10 *5:3 *835:io_out[13] 21.2395
11 *5:3 *81:3 2.53477
12 *5:3 *103:3 7.24656
13 *423 0.0525657
14 *835:io_in[13] 1.32916
15 *5:2 62.0118
16 *5:3 38.6425
17 *5:4 6.39449

*RES
1 *423 *5:4 0.001
2 *835:io_in[13] *5:3 10.0357
3 *5:2 *5:4 65.9013
4 *5:2 *5:3 348.222
*END

*D_NET *6 182.343

*CONN
*P *424 I *C 2997.7800 2832.2000
*I *835:io_in[14] I *C 1511.2800 2289.5600

*CAP
1 *6:2 *5:2 5.86625
2 *6:2 *5:4 9.45218
3 *6:3 *5:4 3.12994
4 *835:io_in[14] *835:io_in[7] 0.0764652
5 *835:io_in[14] *44:3 0.00229194
6 *6:2 *44:2 15.3598
7 *6:3 *44:2 4.45456
8 *6:3 *44:4 17.8763
9 *835:io_in[14] *67:3 0.111949
10 *835:io_in[14] *835:io_out[10] 0.0366053
11 *835:io_in[14] *835:io_out[13] 0.00229194
12 *424 0.0525571
13 *835:io_in[14] 54.9473
14 *6:2 57.6455
15 *6:3 11.9448
16 *6:4 1.38441

*RES
1 *424 *6:4 0.001
2 *835:io_in[14] *6:2 365.805
3 *6:2 *6:3 92.069
4 *6:3 *6:4 8.40352
*END

*D_NET *7 254.586

*CONN
*P *425 I *C 2940.9100 2997.6000
*I *835:io_in[15] I *C 1534.8000 2289.5600

*CAP
1 *7:2 *8:2 1.78878
2 *7:2 *8:3 2.36157
3 *7:3 *8:2 1.75687
4 *7:5 *14:2 0.0436073
5 *7:2 *15:2 0.537064
6 *7:5 *15:2 1.37788
7 *7:2 *16:3 6.84674
8 *7:5 *16:3 11.1605
9 *835:io_in[15] *835:io_in[7] 0.0764652
10 *835:io_in[15] *835:io_oeb[15] 0.00229194
11 *7:2 *45:2 48.6445
12 *7:2 *45:3 15.663
13 *7:3 *45:3 35.3743
14 *7:5 *45:2 4.80583
15 *7:5 *45:5 5.56704
16 *835:io_in[15] *67:3 0.0447999
17 *835:io_in[15] *835:io_out[10] 0.00995096
18 *835:io_in[15] *835:io_out[14] 0.00229194
19 *425 1.16929
20 *835:io_in[15] 27.4559
21 *7:2 29.0689
22 *7:3 36.1368
23 *7:4 0.0352139
24 *7:5 24.6561

*RES
1 *425 *7:3 8.04827
2 *425 *7:4 0.001
3 *835:io_in[15] *7:5 161.287
4 *7:2 *7:5 57.6541
5 *7:2 *7:3 253.414
*END

*D_NET *8 175.306

*CONN
*P *426 I *C 2608.2700 2997.6000
*I *835:io_in[16] I *C 1558.3200 2290.0000

*CAP
1 *8:2 *7:2 1.78878
2 *8:3 *7:2 2.36157
3 *8:2 *7:3 1.75687
4 *8:3 *14:2 10.0969
5 *8:3 *15:2 13.4039
6 *835:io_in[16] *20:4 0.88875
7 *8:2 *45:2 4.44784
8 *8:2 *45:3 18.4645
9 *8:3 *45:2 16.2497
10 *8:3 *45:5 0.280194
11 *835:io_in[16] *835:io_oeb[16] 1.03346
12 *835:io_in[16] *835:io_oeb[1] 0.0776686
13 *835:io_in[16] *89:2 0.345049
14 *835:io_in[16] *92:3 0.0569456
15 *426 1.01962
16 *835:io_in[16] 23.3148
17 *8:2 30.6323
18 *8:3 49.0519
19 *8:4 0.0352127

*RES
1 *426 *8:2 5.51271
2 *426 *8:4 0.001
3 *835:io_in[16] *8:3 166.13
4 *8:2 *8:3 235.719
*END

*D_NET *9 99.9937

*CONN
*P *427 I *C 2275.6300 2997.6000
*I *835:io_in[17] I *C 1581.8400 2289.5600

*CAP
1 *835:io_in[17] *835:io_in[7] 0.0394209
2 *427 5.17587
3 *835:io_in[17] 23.1606
4 *9:2 26.3801
5 *9:3 45.2305
6 *9:4 0.00723392

*RES
1 *427 *9:2 24.4031
2 *427 *9:4 0.001
3 *835:io_in[17] *9:3 136.978
4 *9:2 *9:3 159.437
*END

*D_NET *10 86.6434

*CONN
*P *428 I *C 1942.9900 2997.6000
*I *835:io_in[18] I *C 1605.3600 2290.0000

*CAP
1 *835:io_in[18] *835:io_in[19] 0.0871116
2 *10:2 *13:2 0.835759
3 *835:io_in[18] *835:io_oeb[10] 2.05112
4 *835:io_in[18] *835:io_oeb[7] 0.258423
5 *428 *85:2 10.418
6 *428 *86:2 2.97154
7 *428 6.9022
8 *835:io_in[18] 23.1756
9 *10:2 39.9085
10 *10:3 0.0352127

*RES
1 *428 *10:3 0.001
2 *428 *10:2 86.0855
3 *835:io_in[18] *10:2 162.994
*END

*D_NET *11 56.2137

*CONN
*P *429 I *C 1610.3500 2997.6000
*I *835:io_in[19] I *C 1628.8800 2290.0000

*CAP
1 *835:io_in[19] *835:io_in[18] 0.0871116
2 *429 *14:2 0.00170109
3 *11:2 *26:3 0.303693
4 *11:2 *835:io_in[8] 2.42734
5 *835:io_in[19] *835:io_oeb[19] 0.222385
6 *429 26.8579
7 *835:io_in[19] 1.63756
8 *11:2 24.6687
9 *11:3 0.00723331

*RES
1 *429 *11:3 0.001
2 *429 *11:2 160.066
3 *835:io_in[19] *11:2 12.2024
*END

*D_NET *12 541.932

*CONN
*P *430 I *C 2997.6000 234.2900
*I *835:io_in[1] I *C 1205.4000 2286.2000

*CAP
1 *430 *419 32.5303
2 *430 *1:5 9.71861
3 *12:5 *1:5 98.4347
4 *12:6 *1:5 2.92011
5 *12:6 *1:6 53.3319
6 *12:2 *835:io_in[10] 0.520252
7 *12:2 *2:2 1.63902
8 *835:io_in[1] *21:3 0.0479158
9 *835:io_in[1] *21:5 0.259318
10 *835:io_in[1] *835:io_in[2] 1.48548
11 *835:io_in[1] *28:2 16.2812
12 *835:io_in[1] *28:3 1.42705
13 *12:2 *28:3 48.9607
14 *12:2 *835:io_in[36] 0.00512503
15 *12:2 *30:5 6.04627
16 *835:io_in[1] *835:io_in[4] 0.143564
17 *12:2 *33:2 1.1036
18 *835:io_in[1] *835:io_in[5] 2.88753
19 *12:2 *835:io_in[5] 1.79087
20 *12:2 *34:2 3.09238
21 *12:2 *36:2 0.136707
22 *835:io_in[1] *73:2 0.0477002
23 *835:io_in[1] *835:io_oeb[8] 3.46136
24 *12:2 *835:io_oeb[8] 22.5236
25 *12:2 *75:2 37.184
26 *12:2 *75:4 12.1639
27 *835:io_in[1] *98:4 1.94489
28 *835:io_in[1] *109:5 0.0477002
29 *430 21.763
30 *835:io_in[1] 10.2392
31 *12:2 12.352
32 *12:3 59.4039
33 *12:4 0.0525515
34 *12:5 49.9366
35 *12:6 28.049
36 *12:7 0.0

*RES
1 *430 *12:4 0.001
2 *430 *12:5 208.365
3 *835:io_in[1] *12:7 0.001
4 *835:io_in[1] *12:2 105.358
5 *12:2 *12:3 291.541
6 *12:3 *12:6 11.5918
7 *12:5 *12:6 249.955
*END

*D_NET *13 79.6217

*CONN
*P *431 I *C 1278.6900 2997.6000
*I *835:io_in[20] I *C 1652.4000 2290.0000

*CAP
1 *13:2 *10:2 0.835759
2 *835:io_in[20] *835:io_oeb[10] 1.84719
3 *835:io_in[20] *835:io_oeb[19] 1.22289
4 *835:io_in[20] *49:2 0.36127
5 *835:io_in[20] *835:io_oeb[20] 0.155102
6 *835:io_in[20] *835:io_oeb[7] 0.213527
7 *431 0.711624
8 *835:io_in[20] 22.1118
9 *13:2 39.4915
10 *13:3 12.671

*RES
1 *431 *13:3 0.001
2 *835:io_in[20] *13:2 162.622
3 *13:2 *13:3 94.4893
*END

*D_NET *14 132.265

*CONN
*P *432 I *C 946.0500 2997.6000
*I *835:io_in[21] I *C 1675.9200 2289.5600

*CAP
1 *14:2 *7:5 0.0436073
2 *14:2 *8:3 10.0969
3 *14:2 *429 0.00170109
4 *14:2 *15:2 12.8778
5 *14:4 *433 8.05541
6 *14:4 *15:2 6.52573
7 *14:2 *16:3 0.846217
8 *14:4 *16:2 0.2587
9 *14:4 *16:3 0.931495
10 *835:io_in[21] *835:io_in[7] 0.0764652
11 *14:2 *45:5 0.19113
12 *14:2 *467 0.00170109
13 *14:4 *469 0.00170109
14 *14:2 *505 0.00170109
15 *835:io_in[21] *835:io_out[20] 0.148947
16 *14:4 *507 0.00170109
17 *432 0.733954
18 *835:io_in[21] 24.9388
19 *14:2 20.3659
20 *14:3 26.06
21 *14:4 20.1052

*RES
1 *432 *14:4 0.001
2 *835:io_in[21] *14:3 154.501
3 *14:2 *14:4 165.956
4 *14:2 *14:3 7.19791
*END

*D_NET *15 191.491

*CONN
*P *433 I *C 612.9200 2997.6000
*I *835:io_in[22] I *C 1699.4400 2290.0000

*CAP
1 *15:2 *7:2 0.537064
2 *15:2 *7:5 1.37788
3 *15:2 *8:3 13.4039
4 *15:2 *14:2 12.8778
5 *433 *14:4 8.05541
6 *15:2 *14:4 6.52573
7 *433 *16:2 10.3752
8 *433 *16:3 2.92823
9 *15:2 *16:3 10.0322
10 *835:io_in[22] *20:4 0.727189
11 *15:2 *45:2 10.3119
12 *15:2 *45:5 5.66672
13 *835:io_in[22] *50:2 0.0621919
14 *835:io_in[22] *835:io_oeb[22] 5.56203
15 *835:io_in[22] *53:2 9.14616
16 *835:io_in[22] *835:io_out[16] 0.0338335
17 *835:io_in[22] *92:3 0.1754
18 *433 32.5018
19 *835:io_in[22] 17.2274
20 *15:2 15.0229
21 *15:3 28.9397

*RES
1 *433 *15:2 247.119
2 *835:io_in[22] *15:3 165.695
3 *15:2 *15:3 5.52976
*END

*D_NET *16 189.051

*CONN
*P *434 I *C 280.7700 2997.6000
*I *835:io_in[23] I *C 1722.9600 2290.0000

*CAP
1 *16:3 *7:2 6.84674
2 *16:3 *7:5 11.1605
3 *16:3 *14:2 0.846217
4 *16:2 *14:4 0.2587
5 *16:3 *14:4 0.931495
6 *16:2 *433 10.3752
7 *16:3 *433 2.92823
8 *16:3 *15:2 10.0322
9 *16:3 *45:2 1.16676
10 *16:3 *45:5 0.544822
11 *835:io_in[23] *67:3 0.00556413
12 *434 0.735037
13 *835:io_in[23] 27.1914
14 *16:2 53.0596
15 *16:3 61.1753
16 *16:4 1.79305

*RES
1 *434 *16:4 0.001
2 *835:io_in[23] *16:3 159.943
3 *16:2 *16:4 19.0709
4 *16:2 *16:3 306.654
*END

*D_NET *17 174.419

*CONN
*P *435 I *C 2.1800 2957.0800
*I *835:io_in[24] I *C 1746.4800 2289.5600

*CAP
1 *835:io_in[24] *36:2 0.0819795
2 *835:io_in[24] *835:io_oeb[17] 0.556071
3 *835:io_in[24] *67:3 0.0881519
4 *835:io_in[24] *835:io_out[10] 0.0199019
5 *835:io_in[24] *81:3 0.20461
6 *835:io_in[24] *835:io_out[14] 10.2237
7 *835:io_in[24] *835:io_out[23] 0.112627
8 *435 0.877215
9 *835:io_in[24] 24.4583
10 *17:2 54.4383
11 *17:3 83.3582

*RES
1 *435 *17:2 0.001
2 *835:io_in[24] *17:3 186.755
3 *17:2 *17:3 361.453
*END

*D_NET *18 151.448

*CONN
*P *436 I *C 2.1700 2743.7200
*I *835:io_in[25] I *C 1770.0000 2289.5600

*CAP
1 *18:5 *36:2 0.0764652
2 *18:5 *56:5 0.00229194
3 *18:5 *67:3 0.0447999
4 *18:5 *835:io_out[10] 0.00995096
5 *18:5 *835:io_out[24] 0.153245
6 *436 0.877265
7 *835:io_in[25] 0.965261
8 *18:2 0.0854687
9 *18:3 71.8164
10 *18:4 33.068
11 *18:5 44.3485

*RES
1 *436 *18:4 0.001
2 *835:io_in[25] *18:5 9.71597
3 *18:2 *18:4 0.001
4 *18:3 *18:4 214.524
5 *18:3 *18:5 273.397
*END

*D_NET *19 137.631

*CONN
*P *437 I *C 2.1800 2530.3600
*I *835:io_in[26] I *C 1793.5200 2289.5600

*CAP
1 *835:io_in[26] *36:2 0.0831782
2 *835:io_in[26] *835:io_out[25] 0.00229194
3 *437 0.877215
4 *835:io_in[26] 8.10946
5 *19:2 6.42641
6 *19:3 60.0982
7 *19:4 62.034

*RES