*SPEF "IEEE 1481-1999"
*DESIGN "user_project_wrapper"
*DATE "Sun Dec 11 06:20:52 2022"
*VENDOR "Synopsys Inc."
*PROGRAM "StarRC"
*VERSION "T-2022.03-SP3"
*DESIGN_FLOW "PIN_CAP NONE" "NAME_SCOPE LOCAL"
*DIVIDER /
*DELIMITER :
*BUS_DELIMITER []
*T_UNIT 1.0 NS
*C_UNIT 1.0 FF
*R_UNIT 1.0 OHM
*L_UNIT 1.0 HENRY

// COMMENTS

// CORNER_NAME 
// OPERATING_TEMPERATURE 25
// GLOBAL_TEMPERATURE 25
// TCAD_GRD_FILE /home/passant/gf180_timing/caravel-gf180mcu/scripts/gf180-tech/gf180mcu_1p5m_1tm_9k_sp_smim_OPTB_typ.nxtgrd
//   TCAD_TIME_STAMP Tue Dec 26 17:52:29 2017
//   TCADGRD_VERSION 75
// galaxy_comments_begin
//   local_nodeid
// galaxy_comments_end

*NAME_MAP
*419 io_in[0]
*420 io_in[10]
*421 io_in[11]
*422 io_in[12]
*423 io_in[13]
*424 io_in[14]
*425 io_in[15]
*426 io_in[16]
*427 io_in[17]
*428 io_in[18]
*429 io_in[19]
*430 io_in[1]
*431 io_in[20]
*432 io_in[21]
*433 io_in[22]
*434 io_in[23]
*435 io_in[24]
*436 io_in[25]
*437 io_in[26]
*438 io_in[27]
*439 io_in[28]
*440 io_in[29]
*441 io_in[2]
*442 io_in[30]
*443 io_in[31]
*444 io_in[32]
*445 io_in[33]
*446 io_in[34]
*447 io_in[35]
*448 io_in[36]
*449 io_in[37]
*450 io_in[3]
*451 io_in[4]
*452 io_in[5]
*453 io_in[6]
*454 io_in[7]
*455 io_in[8]
*456 io_in[9]
*457 io_oeb[0]
*458 io_oeb[10]
*459 io_oeb[11]
*460 io_oeb[12]
*461 io_oeb[13]
*462 io_oeb[14]
*463 io_oeb[15]
*464 io_oeb[16]
*465 io_oeb[17]
*466 io_oeb[18]
*467 io_oeb[19]
*468 io_oeb[1]
*469 io_oeb[20]
*470 io_oeb[21]
*471 io_oeb[22]
*472 io_oeb[23]
*473 io_oeb[24]
*474 io_oeb[25]
*475 io_oeb[26]
*476 io_oeb[27]
*477 io_oeb[28]
*478 io_oeb[29]
*479 io_oeb[2]
*480 io_oeb[30]
*481 io_oeb[31]
*482 io_oeb[32]
*483 io_oeb[33]
*484 io_oeb[34]
*485 io_oeb[35]
*486 io_oeb[36]
*487 io_oeb[37]
*488 io_oeb[3]
*489 io_oeb[4]
*490 io_oeb[5]
*491 io_oeb[6]
*492 io_oeb[7]
*493 io_oeb[8]
*494 io_oeb[9]
*495 io_out[0]
*496 io_out[10]
*497 io_out[11]
*498 io_out[12]
*499 io_out[13]
*500 io_out[14]
*501 io_out[15]
*502 io_out[16]
*503 io_out[17]
*504 io_out[18]
*505 io_out[19]
*506 io_out[1]
*507 io_out[20]
*508 io_out[21]
*509 io_out[22]
*510 io_out[23]
*511 io_out[24]
*512 io_out[25]
*513 io_out[26]
*514 io_out[27]
*515 io_out[28]
*516 io_out[29]
*517 io_out[2]
*518 io_out[30]
*519 io_out[31]
*520 io_out[32]
*521 io_out[33]
*522 io_out[34]
*523 io_out[35]
*524 io_out[36]
*525 io_out[37]
*526 io_out[3]
*527 io_out[4]
*528 io_out[5]
*529 io_out[6]
*530 io_out[7]
*531 io_out[8]
*532 io_out[9]
*533 la_data_in[0]
*534 la_data_in[10]
*535 la_data_in[11]
*536 la_data_in[12]
*537 la_data_in[13]
*538 la_data_in[14]
*539 la_data_in[15]
*540 la_data_in[16]
*541 la_data_in[17]
*542 la_data_in[18]
*543 la_data_in[19]
*544 la_data_in[1]
*545 la_data_in[20]
*546 la_data_in[21]
*547 la_data_in[22]
*548 la_data_in[23]
*549 la_data_in[24]
*550 la_data_in[25]
*551 la_data_in[26]
*552 la_data_in[27]
*553 la_data_in[28]
*554 la_data_in[29]
*555 la_data_in[2]
*556 la_data_in[30]
*557 la_data_in[31]
*558 la_data_in[32]
*559 la_data_in[33]
*560 la_data_in[34]
*561 la_data_in[35]
*562 la_data_in[36]
*563 la_data_in[37]
*564 la_data_in[38]
*565 la_data_in[39]
*566 la_data_in[3]
*567 la_data_in[40]
*568 la_data_in[41]
*569 la_data_in[42]
*570 la_data_in[43]
*571 la_data_in[44]
*572 la_data_in[45]
*573 la_data_in[46]
*574 la_data_in[47]
*575 la_data_in[48]
*576 la_data_in[49]
*577 la_data_in[4]
*578 la_data_in[50]
*579 la_data_in[51]
*580 la_data_in[52]
*581 la_data_in[53]
*582 la_data_in[54]
*583 la_data_in[55]
*584 la_data_in[56]
*585 la_data_in[57]
*586 la_data_in[58]
*587 la_data_in[59]
*588 la_data_in[5]
*589 la_data_in[60]
*590 la_data_in[61]
*591 la_data_in[62]
*592 la_data_in[63]
*593 la_data_in[6]
*594 la_data_in[7]
*595 la_data_in[8]
*596 la_data_in[9]
*597 la_data_out[0]
*598 la_data_out[10]
*599 la_data_out[11]
*600 la_data_out[12]
*601 la_data_out[13]
*602 la_data_out[14]
*603 la_data_out[15]
*604 la_data_out[16]
*605 la_data_out[17]
*606 la_data_out[18]
*607 la_data_out[19]
*608 la_data_out[1]
*609 la_data_out[20]
*610 la_data_out[21]
*611 la_data_out[22]
*612 la_data_out[23]
*613 la_data_out[24]
*614 la_data_out[25]
*615 la_data_out[26]
*616 la_data_out[27]
*617 la_data_out[28]
*618 la_data_out[29]
*619 la_data_out[2]
*620 la_data_out[30]
*621 la_data_out[31]
*622 la_data_out[32]
*623 la_data_out[33]
*624 la_data_out[34]
*625 la_data_out[35]
*626 la_data_out[36]
*627 la_data_out[37]
*628 la_data_out[38]
*629 la_data_out[39]
*630 la_data_out[3]
*631 la_data_out[40]
*632 la_data_out[41]
*633 la_data_out[42]
*634 la_data_out[43]
*635 la_data_out[44]
*636 la_data_out[45]
*637 la_data_out[46]
*638 la_data_out[47]
*639 la_data_out[48]
*640 la_data_out[49]
*641 la_data_out[4]
*642 la_data_out[50]
*643 la_data_out[51]
*644 la_data_out[52]
*645 la_data_out[53]
*646 la_data_out[54]
*647 la_data_out[55]
*648 la_data_out[56]
*649 la_data_out[57]
*650 la_data_out[58]
*651 la_data_out[59]
*652 la_data_out[5]
*653 la_data_out[60]
*654 la_data_out[61]
*655 la_data_out[62]
*656 la_data_out[63]
*657 la_data_out[6]
*658 la_data_out[7]
*659 la_data_out[8]
*660 la_data_out[9]
*661 la_oenb[0]
*662 la_oenb[10]
*663 la_oenb[11]
*664 la_oenb[12]
*665 la_oenb[13]
*666 la_oenb[14]
*667 la_oenb[15]
*668 la_oenb[16]
*669 la_oenb[17]
*670 la_oenb[18]
*671 la_oenb[19]
*672 la_oenb[1]
*673 la_oenb[20]
*674 la_oenb[21]
*675 la_oenb[22]
*676 la_oenb[23]
*677 la_oenb[24]
*678 la_oenb[25]
*679 la_oenb[26]
*680 la_oenb[27]
*681 la_oenb[28]
*682 la_oenb[29]
*683 la_oenb[2]
*684 la_oenb[30]
*685 la_oenb[31]
*686 la_oenb[32]
*687 la_oenb[33]
*688 la_oenb[34]
*689 la_oenb[35]
*690 la_oenb[36]
*691 la_oenb[37]
*692 la_oenb[38]
*693 la_oenb[39]
*694 la_oenb[3]
*695 la_oenb[40]
*696 la_oenb[41]
*697 la_oenb[42]
*698 la_oenb[43]
*699 la_oenb[44]
*700 la_oenb[45]
*701 la_oenb[46]
*702 la_oenb[47]
*703 la_oenb[48]
*704 la_oenb[49]
*705 la_oenb[4]
*706 la_oenb[50]
*707 la_oenb[51]
*708 la_oenb[52]
*709 la_oenb[53]
*710 la_oenb[54]
*711 la_oenb[55]
*712 la_oenb[56]
*713 la_oenb[57]
*714 la_oenb[58]
*715 la_oenb[59]
*716 la_oenb[5]
*717 la_oenb[60]
*718 la_oenb[61]
*719 la_oenb[62]
*720 la_oenb[63]
*721 la_oenb[6]
*722 la_oenb[7]
*723 la_oenb[8]
*724 la_oenb[9]
*725 user_clock2
*726 user_irq[0]
*727 user_irq[1]
*728 user_irq[2]
*729 wb_clk_i
*730 wb_rst_i
*731 wbs_ack_o
*732 wbs_adr_i[0]
*733 wbs_adr_i[10]
*734 wbs_adr_i[11]
*735 wbs_adr_i[12]
*736 wbs_adr_i[13]
*737 wbs_adr_i[14]
*738 wbs_adr_i[15]
*739 wbs_adr_i[16]
*740 wbs_adr_i[17]
*741 wbs_adr_i[18]
*742 wbs_adr_i[19]
*743 wbs_adr_i[1]
*744 wbs_adr_i[20]
*745 wbs_adr_i[21]
*746 wbs_adr_i[22]
*747 wbs_adr_i[23]
*748 wbs_adr_i[24]
*749 wbs_adr_i[25]
*750 wbs_adr_i[26]
*751 wbs_adr_i[27]
*752 wbs_adr_i[28]
*753 wbs_adr_i[29]
*754 wbs_adr_i[2]
*755 wbs_adr_i[30]
*756 wbs_adr_i[31]
*757 wbs_adr_i[3]
*758 wbs_adr_i[4]
*759 wbs_adr_i[5]
*760 wbs_adr_i[6]
*761 wbs_adr_i[7]
*762 wbs_adr_i[8]
*763 wbs_adr_i[9]
*764 wbs_cyc_i
*765 wbs_dat_i[0]
*766 wbs_dat_i[10]
*767 wbs_dat_i[11]
*768 wbs_dat_i[12]
*769 wbs_dat_i[13]
*770 wbs_dat_i[14]
*771 wbs_dat_i[15]
*772 wbs_dat_i[16]
*773 wbs_dat_i[17]
*774 wbs_dat_i[18]
*775 wbs_dat_i[19]
*776 wbs_dat_i[1]
*777 wbs_dat_i[20]
*778 wbs_dat_i[21]
*779 wbs_dat_i[22]
*780 wbs_dat_i[23]
*781 wbs_dat_i[24]
*782 wbs_dat_i[25]
*783 wbs_dat_i[26]
*784 wbs_dat_i[27]
*785 wbs_dat_i[28]
*786 wbs_dat_i[29]
*787 wbs_dat_i[2]
*788 wbs_dat_i[30]
*789 wbs_dat_i[31]
*790 wbs_dat_i[3]
*791 wbs_dat_i[4]
*792 wbs_dat_i[5]
*793 wbs_dat_i[6]
*794 wbs_dat_i[7]
*795 wbs_dat_i[8]
*796 wbs_dat_i[9]
*797 wbs_dat_o[0]
*798 wbs_dat_o[10]
*799 wbs_dat_o[11]
*800 wbs_dat_o[12]
*801 wbs_dat_o[13]
*802 wbs_dat_o[14]
*803 wbs_dat_o[15]
*804 wbs_dat_o[16]
*805 wbs_dat_o[17]
*806 wbs_dat_o[18]
*807 wbs_dat_o[19]
*808 wbs_dat_o[1]
*809 wbs_dat_o[20]
*810 wbs_dat_o[21]
*811 wbs_dat_o[22]
*812 wbs_dat_o[23]
*813 wbs_dat_o[24]
*814 wbs_dat_o[25]
*815 wbs_dat_o[26]
*816 wbs_dat_o[27]
*817 wbs_dat_o[28]
*818 wbs_dat_o[29]
*819 wbs_dat_o[2]
*820 wbs_dat_o[30]
*821 wbs_dat_o[31]
*822 wbs_dat_o[3]
*823 wbs_dat_o[4]
*824 wbs_dat_o[5]
*825 wbs_dat_o[6]
*826 wbs_dat_o[7]
*827 wbs_dat_o[8]
*828 wbs_dat_o[9]
*829 wbs_sel_i[0]
*830 wbs_sel_i[1]
*831 wbs_sel_i[2]
*832 wbs_sel_i[3]
*833 wbs_stb_i
*834 wbs_we_i
*835 mprj
*1 io_in[0]
*2 io_in[10]
*3 io_in[11]
*4 io_in[12]
*5 io_in[13]
*6 io_in[14]
*7 io_in[15]
*8 io_in[16]
*9 io_in[17]
*10 io_in[18]
*11 io_in[19]
*12 io_in[1]
*13 io_in[20]
*14 io_in[21]
*15 io_in[22]
*16 io_in[23]
*17 io_in[24]
*18 io_in[25]
*19 io_in[26]
*20 io_in[27]
*21 io_in[28]
*22 io_in[29]
*23 io_in[2]
*24 io_in[30]
*25 io_in[31]
*26 io_in[32]
*27 io_in[33]
*28 io_in[34]
*29 io_in[35]
*30 io_in[36]
*31 io_in[37]
*32 io_in[3]
*33 io_in[4]
*34 io_in[5]
*35 io_in[6]
*36 io_in[7]
*37 io_in[8]
*38 io_in[9]
*39 io_oeb[0]
*40 io_oeb[10]
*41 io_oeb[11]
*42 io_oeb[12]
*43 io_oeb[13]
*44 io_oeb[14]
*45 io_oeb[15]
*46 io_oeb[16]
*47 io_oeb[17]
*48 io_oeb[18]
*49 io_oeb[19]
*50 io_oeb[1]
*51 io_oeb[20]
*52 io_oeb[21]
*53 io_oeb[22]
*54 io_oeb[23]
*55 io_oeb[24]
*56 io_oeb[25]
*57 io_oeb[26]
*58 io_oeb[27]
*59 io_oeb[28]
*60 io_oeb[29]
*61 io_oeb[2]
*62 io_oeb[30]
*63 io_oeb[31]
*64 io_oeb[32]
*65 io_oeb[33]
*66 io_oeb[34]
*67 io_oeb[35]
*68 io_oeb[36]
*69 io_oeb[37]
*70 io_oeb[3]
*71 io_oeb[4]
*72 io_oeb[5]
*73 io_oeb[6]
*74 io_oeb[7]
*75 io_oeb[8]
*76 io_oeb[9]
*77 io_out[0]
*78 io_out[10]
*79 io_out[11]
*80 io_out[12]
*81 io_out[13]
*82 io_out[14]
*83 io_out[15]
*84 io_out[16]
*85 io_out[17]
*86 io_out[18]
*87 io_out[19]
*88 io_out[1]
*89 io_out[20]
*90 io_out[21]
*91 io_out[22]
*92 io_out[23]
*93 io_out[24]
*94 io_out[25]
*95 io_out[26]
*96 io_out[27]
*97 io_out[28]
*98 io_out[29]
*99 io_out[2]
*100 io_out[30]
*101 io_out[31]
*102 io_out[32]
*103 io_out[33]
*104 io_out[34]
*105 io_out[35]
*106 io_out[36]
*107 io_out[37]
*108 io_out[3]
*109 io_out[4]
*110 io_out[5]
*111 io_out[6]
*112 io_out[7]
*113 io_out[8]
*114 io_out[9]
*115 la_data_in[0]
*116 la_data_in[10]
*117 la_data_in[11]
*118 la_data_in[12]
*119 la_data_in[13]
*120 la_data_in[14]
*121 la_data_in[15]
*122 la_data_in[16]
*123 la_data_in[17]
*124 la_data_in[18]
*125 la_data_in[19]
*126 la_data_in[1]
*127 la_data_in[20]
*128 la_data_in[21]
*129 la_data_in[22]
*130 la_data_in[23]
*131 la_data_in[24]
*132 la_data_in[25]
*133 la_data_in[26]
*134 la_data_in[27]
*135 la_data_in[28]
*136 la_data_in[29]
*137 la_data_in[2]
*138 la_data_in[30]
*139 la_data_in[31]
*140 la_data_in[32]
*141 la_data_in[33]
*142 la_data_in[34]
*143 la_data_in[35]
*144 la_data_in[36]
*145 la_data_in[37]
*146 la_data_in[38]
*147 la_data_in[39]
*148 la_data_in[3]
*149 la_data_in[40]
*150 la_data_in[41]
*151 la_data_in[42]
*152 la_data_in[43]
*153 la_data_in[44]
*154 la_data_in[45]
*155 la_data_in[46]
*156 la_data_in[47]
*157 la_data_in[48]
*158 la_data_in[49]
*159 la_data_in[4]
*160 la_data_in[50]
*161 la_data_in[51]
*162 la_data_in[52]
*163 la_data_in[53]
*164 la_data_in[54]
*165 la_data_in[55]
*166 la_data_in[56]
*167 la_data_in[57]
*168 la_data_in[58]
*169 la_data_in[59]
*170 la_data_in[5]
*171 la_data_in[60]
*172 la_data_in[61]
*173 la_data_in[62]
*174 la_data_in[63]
*175 la_data_in[6]
*176 la_data_in[7]
*177 la_data_in[8]
*178 la_data_in[9]
*179 la_data_out[0]
*180 la_data_out[10]
*181 la_data_out[11]
*182 la_data_out[12]
*183 la_data_out[13]
*184 la_data_out[14]
*185 la_data_out[15]
*186 la_data_out[16]
*187 la_data_out[17]
*188 la_data_out[18]
*189 la_data_out[19]
*190 la_data_out[1]
*191 la_data_out[20]
*192 la_data_out[21]
*193 la_data_out[22]
*194 la_data_out[23]
*195 la_data_out[24]
*196 la_data_out[25]
*197 la_data_out[26]
*198 la_data_out[27]
*199 la_data_out[28]
*200 la_data_out[29]
*201 la_data_out[2]
*202 la_data_out[30]
*203 la_data_out[31]
*204 la_data_out[32]
*205 la_data_out[33]
*206 la_data_out[34]
*207 la_data_out[35]
*208 la_data_out[36]
*209 la_data_out[37]
*210 la_data_out[38]
*211 la_data_out[39]
*212 la_data_out[3]
*213 la_data_out[40]
*214 la_data_out[41]
*215 la_data_out[42]
*216 la_data_out[43]
*217 la_data_out[44]
*218 la_data_out[45]
*219 la_data_out[46]
*220 la_data_out[47]
*221 la_data_out[48]
*222 la_data_out[49]
*223 la_data_out[4]
*224 la_data_out[50]
*225 la_data_out[51]
*226 la_data_out[52]
*227 la_data_out[53]
*228 la_data_out[54]
*229 la_data_out[55]
*230 la_data_out[56]
*231 la_data_out[57]
*232 la_data_out[58]
*233 la_data_out[59]
*234 la_data_out[5]
*235 la_data_out[60]
*236 la_data_out[61]
*237 la_data_out[62]
*238 la_data_out[63]
*239 la_data_out[6]
*240 la_data_out[7]
*241 la_data_out[8]
*242 la_data_out[9]
*243 la_oenb[0]
*244 la_oenb[10]
*245 la_oenb[11]
*246 la_oenb[12]
*247 la_oenb[13]
*248 la_oenb[14]
*249 la_oenb[15]
*250 la_oenb[16]
*251 la_oenb[17]
*252 la_oenb[18]
*253 la_oenb[19]
*254 la_oenb[1]
*255 la_oenb[20]
*256 la_oenb[21]
*257 la_oenb[22]
*258 la_oenb[23]
*259 la_oenb[24]
*260 la_oenb[25]
*261 la_oenb[26]
*262 la_oenb[27]
*263 la_oenb[28]
*264 la_oenb[29]
*265 la_oenb[2]
*266 la_oenb[30]
*267 la_oenb[31]
*268 la_oenb[32]
*269 la_oenb[33]
*270 la_oenb[34]
*271 la_oenb[35]
*272 la_oenb[36]
*273 la_oenb[37]
*274 la_oenb[38]
*275 la_oenb[39]
*276 la_oenb[3]
*277 la_oenb[40]
*278 la_oenb[41]
*279 la_oenb[42]
*280 la_oenb[43]
*281 la_oenb[44]
*282 la_oenb[45]
*283 la_oenb[46]
*284 la_oenb[47]
*285 la_oenb[48]
*286 la_oenb[49]
*287 la_oenb[4]
*288 la_oenb[50]
*289 la_oenb[51]
*290 la_oenb[52]
*291 la_oenb[53]
*292 la_oenb[54]
*293 la_oenb[55]
*294 la_oenb[56]
*295 la_oenb[57]
*296 la_oenb[58]
*297 la_oenb[59]
*298 la_oenb[5]
*299 la_oenb[60]
*300 la_oenb[61]
*301 la_oenb[62]
*302 la_oenb[63]
*303 la_oenb[6]
*304 la_oenb[7]
*305 la_oenb[8]
*306 la_oenb[9]
*307 user_clock2
*308 user_irq[0]
*309 user_irq[1]
*310 user_irq[2]
*313 wb_clk_i
*314 wb_rst_i
*315 wbs_ack_o
*316 wbs_adr_i[0]
*317 wbs_adr_i[10]
*318 wbs_adr_i[11]
*319 wbs_adr_i[12]
*320 wbs_adr_i[13]
*321 wbs_adr_i[14]
*322 wbs_adr_i[15]
*323 wbs_adr_i[16]
*324 wbs_adr_i[17]
*325 wbs_adr_i[18]
*326 wbs_adr_i[19]
*327 wbs_adr_i[1]
*328 wbs_adr_i[20]
*329 wbs_adr_i[21]
*330 wbs_adr_i[22]
*331 wbs_adr_i[23]
*332 wbs_adr_i[24]
*333 wbs_adr_i[25]
*334 wbs_adr_i[26]
*335 wbs_adr_i[27]
*336 wbs_adr_i[28]
*337 wbs_adr_i[29]
*338 wbs_adr_i[2]
*339 wbs_adr_i[30]
*340 wbs_adr_i[31]
*341 wbs_adr_i[3]
*342 wbs_adr_i[4]
*343 wbs_adr_i[5]
*344 wbs_adr_i[6]
*345 wbs_adr_i[7]
*346 wbs_adr_i[8]
*347 wbs_adr_i[9]
*348 wbs_cyc_i
*349 wbs_dat_i[0]
*350 wbs_dat_i[10]
*351 wbs_dat_i[11]
*352 wbs_dat_i[12]
*353 wbs_dat_i[13]
*354 wbs_dat_i[14]
*355 wbs_dat_i[15]
*356 wbs_dat_i[16]
*357 wbs_dat_i[17]
*358 wbs_dat_i[18]
*359 wbs_dat_i[19]
*360 wbs_dat_i[1]
*361 wbs_dat_i[20]
*362 wbs_dat_i[21]
*363 wbs_dat_i[22]
*364 wbs_dat_i[23]
*365 wbs_dat_i[24]
*366 wbs_dat_i[25]
*367 wbs_dat_i[26]
*368 wbs_dat_i[27]
*369 wbs_dat_i[28]
*370 wbs_dat_i[29]
*371 wbs_dat_i[2]
*372 wbs_dat_i[30]
*373 wbs_dat_i[31]
*374 wbs_dat_i[3]
*375 wbs_dat_i[4]
*376 wbs_dat_i[5]
*377 wbs_dat_i[6]
*378 wbs_dat_i[7]
*379 wbs_dat_i[8]
*380 wbs_dat_i[9]
*381 wbs_dat_o[0]
*382 wbs_dat_o[10]
*383 wbs_dat_o[11]
*384 wbs_dat_o[12]
*385 wbs_dat_o[13]
*386 wbs_dat_o[14]
*387 wbs_dat_o[15]
*388 wbs_dat_o[16]
*389 wbs_dat_o[17]
*390 wbs_dat_o[18]
*391 wbs_dat_o[19]
*392 wbs_dat_o[1]
*393 wbs_dat_o[20]
*394 wbs_dat_o[21]
*395 wbs_dat_o[22]
*396 wbs_dat_o[23]
*397 wbs_dat_o[24]
*398 wbs_dat_o[25]
*399 wbs_dat_o[26]
*400 wbs_dat_o[27]
*401 wbs_dat_o[28]
*402 wbs_dat_o[29]
*403 wbs_dat_o[2]
*404 wbs_dat_o[30]
*405 wbs_dat_o[31]
*406 wbs_dat_o[3]
*407 wbs_dat_o[4]
*408 wbs_dat_o[5]
*409 wbs_dat_o[6]
*410 wbs_dat_o[7]
*411 wbs_dat_o[8]
*412 wbs_dat_o[9]
*413 wbs_sel_i[0]
*414 wbs_sel_i[1]
*415 wbs_sel_i[2]
*416 wbs_sel_i[3]
*417 wbs_stb_i
*418 wbs_we_i

*PORTS

*419 I
*420 I
*421 I
*422 I
*423 I
*424 I
*425 I
*426 I
*427 I
*428 I
*429 I
*430 I
*431 I
*432 I
*433 I
*434 I
*435 I
*436 I
*437 I
*438 I
*439 I
*440 I
*441 I
*442 I
*443 I
*444 I
*445 I
*446 I
*447 I
*448 I
*449 I
*450 I
*451 I
*452 I
*453 I
*454 I
*455 I
*456 I
*457 O
*458 O
*459 O
*460 O
*461 O
*462 O
*463 O
*464 O
*465 O
*466 O
*467 O
*468 O
*469 O
*470 O
*471 O
*472 O
*473 O
*474 O
*475 O
*476 O
*477 O
*478 O
*479 O
*480 O
*481 O
*482 O
*483 O
*484 O
*485 O
*486 O
*487 O
*488 O
*489 O
*490 O
*491 O
*492 O
*493 O
*494 O
*495 O
*496 O
*497 O
*498 O
*499 O
*500 O
*501 O
*502 O
*503 O
*504 O
*505 O
*506 O
*507 O
*508 O
*509 O
*510 O
*511 O
*512 O
*513 O
*514 O
*515 O
*516 O
*517 O
*518 O
*519 O
*520 O
*521 O
*522 O
*523 O
*524 O
*525 O
*526 O
*527 O
*528 O
*529 O
*530 O
*531 O
*532 O
*533 I
*534 I
*535 I
*536 I
*537 I
*538 I
*539 I
*540 I
*541 I
*542 I
*543 I
*544 I
*545 I
*546 I
*547 I
*548 I
*549 I
*550 I
*551 I
*552 I
*553 I
*554 I
*555 I
*556 I
*557 I
*558 I
*559 I
*560 I
*561 I
*562 I
*563 I
*564 I
*565 I
*566 I
*567 I
*568 I
*569 I
*570 I
*571 I
*572 I
*573 I
*574 I
*575 I
*576 I
*577 I
*578 I
*579 I
*580 I
*581 I
*582 I
*583 I
*584 I
*585 I
*586 I
*587 I
*588 I
*589 I
*590 I
*591 I
*592 I
*593 I
*594 I
*595 I
*596 I
*597 O
*598 O
*599 O
*600 O
*601 O
*602 O
*603 O
*604 O
*605 O
*606 O
*607 O
*608 O
*609 O
*610 O
*611 O
*612 O
*613 O
*614 O
*615 O
*616 O
*617 O
*618 O
*619 O
*620 O
*621 O
*622 O
*623 O
*624 O
*625 O
*626 O
*627 O
*628 O
*629 O
*630 O
*631 O
*632 O
*633 O
*634 O
*635 O
*636 O
*637 O
*638 O
*639 O
*640 O
*641 O
*642 O
*643 O
*644 O
*645 O
*646 O
*647 O
*648 O
*649 O
*650 O
*651 O
*652 O
*653 O
*654 O
*655 O
*656 O
*657 O
*658 O
*659 O
*660 O
*661 I
*662 I
*663 I
*664 I
*665 I
*666 I
*667 I
*668 I
*669 I
*670 I
*671 I
*672 I
*673 I
*674 I
*675 I
*676 I
*677 I
*678 I
*679 I
*680 I
*681 I
*682 I
*683 I
*684 I
*685 I
*686 I
*687 I
*688 I
*689 I
*690 I
*691 I
*692 I
*693 I
*694 I
*695 I
*696 I
*697 I
*698 I
*699 I
*700 I
*701 I
*702 I
*703 I
*704 I
*705 I
*706 I
*707 I
*708 I
*709 I
*710 I
*711 I
*712 I
*713 I
*714 I
*715 I
*716 I
*717 I
*718 I
*719 I
*720 I
*721 I
*722 I
*723 I
*724 I
*725 I
*726 O
*727 O
*728 O
*729 I
*730 I
*731 O
*732 I
*733 I
*734 I
*735 I
*736 I
*737 I
*738 I
*739 I
*740 I
*741 I
*742 I
*743 I
*744 I
*745 I
*746 I
*747 I
*748 I
*749 I
*750 I
*751 I
*752 I
*753 I
*754 I
*755 I
*756 I
*757 I
*758 I
*759 I
*760 I
*761 I
*762 I
*763 I
*764 I
*765 I
*766 I
*767 I
*768 I
*769 I
*770 I
*771 I
*772 I
*773 I
*774 I
*775 I
*776 I
*777 I
*778 I
*779 I
*780 I
*781 I
*782 I
*783 I
*784 I
*785 I
*786 I
*787 I
*788 I
*789 I
*790 I
*791 I
*792 I
*793 I
*794 I
*795 I
*796 I
*797 O
*798 O
*799 O
*800 O
*801 O
*802 O
*803 O
*804 O
*805 O
*806 O
*807 O
*808 O
*809 O
*810 O
*811 O
*812 O
*813 O
*814 O
*815 O
*816 O
*817 O
*818 O
*819 O
*820 O
*821 O
*822 O
*823 O
*824 O
*825 O
*826 O
*827 O
*828 O
*829 I
*830 I
*831 I
*832 I
*833 I
*834 I

*D_NET *1 384.153

*CONN
*P *419 I *C 2997.6000 34.3700
*I *835:io_in[0] I *C 1182.0000 2287.3200

*CAP
1 *1:3 *22:2 0.00298542
2 *1:4 *69:5 20.2772
3 *1:4 *69:7 46.5551
4 *1:7 *69:5 31.5274
5 *1:4 *537 0.0522273
6 *1:4 *119:2 0.128521
7 *1:7 *537 0.0461089
8 *1:4 *540 0.298977
9 *1:4 *130:4 0.0497442
10 *1:4 *131:4 0.0276688
11 *1:7 *598 0.0785898
12 *1:4 *602 1.97672
13 *1:4 *605 0.0108493
14 *1:4 *611 0.106942
15 *1:4 *197:4 0.0473881
16 *1:4 *662 0.287776
17 *1:7 *662 1.10886
18 *419 0.961339
19 *835:io_in[0] 0.330107
20 *1:2 82.8884
21 *1:3 61.7903
22 *1:4 41.4088
23 *1:5 48.233
24 *1:6 0.0574747
25 *1:7 45.9005

*RES
1 *419 *1:5 4.2509
2 *419 *1:6 0.001
3 *835:io_in[0] *1:3 12.9944
4 *1:2 *1:7 364.892
5 *1:2 *1:3 360.407
6 *1:4 *1:7 184.232
7 *1:4 *1:5 394.39
*END

*D_NET *2 356.983

*CONN
*P *420 I *C 2997.6000 2033.5700
*I *835:io_in[10] I *C 1417.0800 2286.2000

*CAP
1 *2:2 *3:2 0.556305
2 *2:3 *3:2 0.084636
3 *835:io_in[10] *22:3 1.55246
4 *2:2 *22:3 1.13672
5 *2:2 *835:io_in[31] 0.00701499
6 *2:2 *835:io_in[33] 0.00347315
7 *2:2 *835:io_in[34] 0.0062073
8 *2:2 *29:3 0.0241672
9 *2:3 *835:io_in[37] 0.004833
10 *420 *38:5 8.74722
11 *2:2 *38:2 0.0436269
12 *2:4 *456 2.18299
13 *2:4 *38:5 16.1639
14 *420 *50:7 0.815691
15 *835:io_in[10] *835:io_oeb[1] 13.5472
16 *835:io_in[10] *50:2 10.2645
17 *2:2 *50:2 26.0787
18 *2:2 *50:3 2.9669
19 *2:3 *50:3 56.3674
20 *2:3 *50:4 1.75203
21 *2:4 *50:4 51.9671
22 *2:4 *50:7 0.99475
23 *2:2 *835:io_oeb[30] 0.00650518
24 *2:2 *66:3 0.00533171
25 *2:3 *835:io_oeb[35] 0.00825893
26 *2:3 *835:io_oeb[36] 0.00711696
27 *2:3 *835:io_oeb[37] 0.00307926
28 *420 *72:6 11.5577
29 *2:4 *72:6 15.6889
30 *835:io_in[10] *835:io_oeb[8] 22.5051
31 *2:2 *835:io_oeb[8] 8.14073
32 *2:2 *75:2 23.1606
33 *2:3 *75:2 10.1742
34 *2:2 *100:2 0.00825893
35 *2:2 *101:2 0.0159757
36 *2:2 *835:io_out[34] 0.0285861
37 *2:2 *104:3 0.037588
38 *2:3 *835:io_out[35] 0.0128416
39 *2:3 *835:io_out[36] 0.00597498
40 *2:3 *835:io_out[37] 0.0119971
41 *420 8.59504
42 *835:io_in[10] 16.5172
43 *2:2 11.3658
44 *2:3 17.5333
45 *2:4 16.2675
46 *2:5 0.0574752
47 *2:6 0.0

*RES
1 *420 *2:5 0.001
2 *420 *2:4 92.6712
3 *835:io_in[10] *2:6 0.001
4 *835:io_in[10] *2:2 185.86
5 *2:2 *2:3 44.3877
6 *2:3 *2:4 289.987
*END

*D_NET *3 175.197

*CONN
*P *421 I *C 2997.7800 2232.4400
*I *835:io_in[11] I *C 1440.6000 2287.3200

*CAP
1 *3:2 *2:2 0.556305
2 *3:2 *2:3 0.084636
3 *835:io_in[11] *22:3 2.5407
4 *3:2 *22:3 1.28917
5 *3:2 *26:3 0.274374
6 *835:io_in[11] *835:io_in[9] 0.694203
7 *835:io_in[11] *38:2 0.991878
8 *3:2 *38:2 8.77629
9 *835:io_in[11] *835:io_oeb[1] 0.133602
10 *835:io_in[11] *50:2 0.20381
11 *3:2 *50:2 1.22269
12 *3:2 *50:3 1.17357
13 *835:io_in[11] *835:io_oeb[8] 0.0529555
14 *835:io_in[11] *97:3 27.0668
15 *835:io_in[11] *97:4 1.26462
16 *3:2 *97:3 13.7699
17 *421 0.187423
18 *835:io_in[11] 16.8016
19 *3:2 60.1564
20 *3:3 37.0138
21 *3:5 0.942792

*RES
1 *421 *3:5 0.001
2 *421 *3:3 2.025
3 *835:io_in[11] *3:4 0.001
4 *835:io_in[11] *3:2 214.149
5 *3:2 *3:3 328.582
*END

*D_NET *4 139.971

*CONN
*P *422 I *C 2997.7800 2432.3600
*I *835:io_in[12] I *C 1464.2400 2290.0000

*CAP
1 *4:3 *5:3 0.606339
2 *4:4 *5:3 0.739567
3 *4:3 *6:3 2.58939
4 *4:4 *6:3 8.81714
5 *4:2 *835:io_in[18] 0.329595
6 *4:2 *835:io_in[20] 0.420477
7 *835:io_in[12] *835:io_oeb[13] 0.337082
8 *4:2 *835:io_oeb[24] 7.03866
9 *835:io_in[12] *58:3 1.33888
10 *4:2 *58:3 4.9934
11 *4:3 *72:6 0.199571
12 *835:io_in[12] *835:io_oeb[9] 0.187415
13 *4:2 *835:io_oeb[9] 0.396212
14 *4:2 *76:2 4.96148
15 *835:io_in[12] *835:io_out[12] 0.235854
16 *422 0.0574803
17 *835:io_in[12] 6.93229
18 *4:2 44.8025
19 *4:3 52.8913
20 *4:4 2.09609

*RES
1 *422 *4:4 0.001
2 *835:io_in[12] *4:2 82.9174
3 *4:2 *4:3 417.18
4 *4:3 *4:4 52.1862
*END

*D_NET *5 211.288

*CONN
*P *423 I *C 2997.7800 2632.2800
*I *835:io_in[13] I *C 1487.7600 2290.0000

*CAP
1 *5:3 *4:3 0.606339
2 *5:3 *4:4 0.739567
3 *5:3 *6:3 14.5421
4 *5:4 *6:3 9.65481
5 *5:4 *6:4 8.98921
6 *5:3 *44:3 7.98883
7 *5:4 *44:3 18.5152
8 *5:2 *835:io_oeb[18] 2.38597
9 *5:2 *48:2 8.99704
10 *835:io_in[13] *54:3 6.7951
11 *5:2 *54:3 20.6618
12 *835:io_in[13] *60:3 0.808344
13 *5:2 *60:3 3.09044
14 *5:3 *72:6 0.560192
15 *835:io_in[13] *835:io_out[12] 0.141175
16 *835:io_in[13] *835:io_out[9] 0.148422
17 *5:2 *835:io_out[9] 0.646353
18 *5:2 *114:2 5.22207
19 *423 0.0574803
20 *835:io_in[13] 5.59901
21 *5:2 37.5381
22 *5:3 50.9527
23 *5:4 5.10964
24 *5:5 1.53821

*RES
1 *423 *5:5 0.001
2 *835:io_in[13] *5:2 72.9402
3 *5:2 *5:3 425.238
4 *5:3 *5:4 101.375
5 *5:4 *5:5 9.43072
*END

*D_NET *6 198.371

*CONN
*P *424 I *C 2997.7800 2832.2000
*I *835:io_in[14] I *C 1511.2800 2290.0000

*CAP
1 *6:3 *4:3 2.58939
2 *6:3 *4:4 8.81714
3 *6:3 *5:3 14.5421
4 *6:3 *5:4 9.65481
5 *6:4 *5:4 8.98921
6 *6:2 *835:io_in[23] 0.00106085
7 *6:2 *835:io_in[24] 0.0310229
8 *6:2 *18:4 0.0168679
9 *835:io_in[14] *835:io_oeb[14] 0.340572
10 *6:3 *44:3 1.27045
11 *6:4 *44:3 1.3951
12 *6:4 *44:4 8.09698
13 *835:io_in[14] *49:2 4.58513
14 *6:2 *49:2 9.65567
15 *6:2 *51:2 0.00318256
16 *6:2 *835:io_oeb[25] 0.00318256
17 *835:io_in[14] *60:3 0.544502
18 *6:2 *60:3 3.87662
19 *6:3 *72:6 0.0254939
20 *835:io_in[14] *835:io_out[13] 0.05931
21 *6:2 *835:io_out[18] 0.333715
22 *6:2 *835:io_out[19] 0.00742597
23 *6:2 *835:io_out[22] 0.00106085
24 *6:2 *835:io_out[24] 0.0126882
25 *424 0.0574701
26 *835:io_in[14] 4.4838
27 *6:2 47.3006
28 *6:3 52.5764
29 *6:4 17.6635
30 *6:5 1.43626

*RES
1 *424 *6:5 0.001
2 *835:io_in[14] *6:2 62.6031
3 *6:2 *6:3 426.506
4 *6:3 *6:4 169.51
5 *6:4 *6:5 7.065
*END

*D_NET *7 299.628

*CONN
*P *425 I *C 2940.9100 2997.6000
*I *835:io_in[15] I *C 1534.8000 2289.5600

*CAP
1 *7:2 *8:2 1.77752
2 *7:2 *8:3 1.31893
3 *7:3 *8:2 0.609154
4 *7:5 *8:3 0.122436
5 *7:2 *9:2 17.1796
6 *7:2 *9:3 5.98736
7 *7:5 *9:3 3.33436
8 *7:5 *15:3 0.0569304
9 *7:5 *16:3 21.1087
10 *7:5 *17:3 2.19258
11 *835:io_in[15] *835:io_oeb[15] 0.00222473
12 *7:2 *45:2 54.9637
13 *7:2 *45:3 21.7405
14 *7:3 *45:3 27.2797
15 *7:5 *45:2 7.794
16 *7:5 *45:5 17.4885
17 *835:io_in[15] *49:2 0.00598994
18 *835:io_in[15] *57:5 3.43024
19 *835:io_in[15] *72:2 0.0720563
20 *835:io_in[15] *835:io_oeb[8] 0.0515899
21 *835:io_in[15] *835:io_out[11] 0.0471567
22 *835:io_in[15] *835:io_out[14] 0.00222473
23 *425 1.10182
24 *835:io_in[15] 26.6051
25 *7:2 23.4844
26 *7:3 35.0586
27 *7:4 0.0368478
28 *7:5 26.7751

*RES
1 *425 *7:3 9.84215
2 *425 *7:4 0.001
3 *835:io_in[15] *7:5 232.044
4 *7:2 *7:5 164.041
5 *7:2 *7:3 286.29
*END

*D_NET *8 171.934

*CONN
*P *426 I *C 2608.2700 2997.6000
*I *835:io_in[16] I *C 1558.3200 2290.0000

*CAP
1 *8:2 *7:2 1.77752
2 *8:3 *7:2 1.31893
3 *8:2 *7:3 0.609154
4 *8:3 *7:5 0.122436
5 *8:3 *14:2 11.567
6 *8:3 *15:3 14.367
7 *8:3 *17:3 3.14332
8 *835:io_in[16] *20:4 1.01099
9 *8:2 *45:2 5.59508
10 *8:2 *45:3 9.15682
11 *8:3 *45:2 9.16348
12 *835:io_in[16] *835:io_oeb[16] 0.737832
13 *8:3 *465 0.0310994
14 *8:3 *466 0.0684892
15 *835:io_in[16] *835:io_oeb[9] 0.0744182
16 *8:2 *502 0.0107701
17 *8:2 *503 0.0481599
18 *8:3 *92:3 2.66573
19 *835:io_in[16] *94:4 0.0816458
20 *835:io_in[16] *95:5 0.00717996
21 *426 1.031
22 *835:io_in[16] 24.6402
23 *8:2 34.7319
24 *8:3 49.9371
25 *8:4 0.0368465

*RES
1 *426 *8:2 5.99143
2 *426 *8:4 0.001
3 *835:io_in[16] *8:3 237.427
4 *8:2 *8:3 339.799
*END

*D_NET *9 140.172

*CONN
*P *427 I *C 2275.6300 2997.6000
*I *835:io_in[17] I *C 1581.8400 2289.5600

*CAP
1 *9:2 *7:2 17.1796
2 *9:3 *7:2 5.98736
3 *9:3 *7:5 3.33436
4 *9:3 *16:3 15.6533
5 *9:2 *45:2 2.30753
6 *9:2 *45:3 0.0302835
7 *9:3 *45:2 1.09381
8 *835:io_in[17] *835:io_oeb[8] 0.0299273
9 *835:io_in[17] *79:2 0.0208146
10 *427 1.28589
11 *835:io_in[17] 26.7284
12 *9:2 22.569
13 *9:3 43.9153
14 *9:4 0.0368478

*RES
1 *427 *9:2 9.39858
2 *427 *9:4 0.001
3 *835:io_in[17] *9:3 222.679
4 *9:2 *9:3 229.02
*END

*D_NET *10 96.6665

*CONN
*P *428 I *C 1942.9900 2997.6000
*I *835:io_in[18] I *C 1605.3600 2290.0000

*CAP
1 *835:io_in[18] *4:2 0.329595
2 *10:2 *13:2 1.93258
3 *835:io_in[18] *835:io_oeb[18] 0.11594
4 *835:io_in[18] *58:3 1.43102
5 *835:io_in[18] *835:io_oeb[9] 0.146812
6 *835:io_in[18] *835:io_out[17] 0.0113443
7 *428 *504 6.29137
8 *835:io_in[18] *835:io_out[18] 0.144198
9 *10:2 *504 3.91891
10 *10:2 *86:2 11.23
11 *428 14.6294
12 *835:io_in[18] 23.7365
13 *10:2 32.7119
14 *10:3 0.0368471

*RES
1 *428 *10:3 0.001
2 *428 *10:2 124.247
3 *835:io_in[18] *10:2 229.918
*END

*D_NET *11 56.6283

*CONN
*P *429 I *C 1610.3500 2997.6000
*I *835:io_in[19] I *C 1628.8800 2289.5600

*CAP
1 *11:2 *49:2 0.0107819
2 *11:2 *72:2 0.137618
3 *11:2 *835:io_oeb[8] 0.0515899
4 *11:2 *79:2 0.0418838
5 *11:2 *835:io_out[18] 0.296866
6 *429 *92:3 0.0681104
7 *429 26.7839
8 *835:io_in[19] 1.10413
9 *11:2 28.126
10 *11:3 0.00734624

*RES
1 *429 *11:3 0.001
2 *429 *11:2 232.294
3 *835:io_in[19] *11:2 14.0657
*END

*D_NET *12 301.392

*CONN
*P *430 I *C 2997.7800 233.2400
*I *835:io_in[1] I *C 1205.5200 2287.3200

*CAP
1 *12:3 *22:2 0.00650278
2 *12:2 *835:wbs_ack_o 0.515886
3 *12:2 *835:wbs_adr_i[3] 0.179642
4 *12:2 *341:2 0.93207
5 *12:2 *835:wbs_cyc_i 0.0902078
6 *12:2 *418:3 7.86003
7 *12:2 *418:4 6.01267
8 *12:4 *418:2 0.167364
9 *12:4 *418:3 2.58173
10 *430 0.187427
11 *835:io_in[1] 0.491766
12 *12:2 77.9635
13 *12:3 61.8699
14 *12:4 93.4839
15 *12:5 48.1027
16 *12:6 0.946484

*RES
1 *430 *12:6 0.001
2 *430 *12:5 2.025
3 *835:io_in[1] *12:3 15.0413
4 *12:2 *12:4 455.139
5 *12:2 *12:3 356.87
6 *12:4 *12:5 424.784
*END

*D_NET *13 83.8398

*CONN
*P *431 I *C 1278.6900 2997.6000
*I *835:io_in[20] I *C 1652.4000 2290.0000

*CAP
1 *835:io_in[20] *4:2 0.420477
2 *13:2 *10:2 1.93258
3 *835:io_in[20] *49:2 0.299881
4 *835:io_in[20] *835:io_oeb[20] 0.165018
5 *835:io_in[20] *58:3 2.10658
6 *835:io_in[20] *835:io_oeb[9] 0.20331
7 *431 0.758217
8 *835:io_in[20] 23.548
9 *13:2 40.8163
10 *13:3 13.5894

*RES
1 *431 *13:3 0.001
2 *835:io_in[20] *13:2 231.988
3 *13:2 *13:3 133.713
*END

*D_NET *14 193.628

*CONN
*P *432 I *C 946.0500 2997.6000
*I *835:io_in[21] I *C 1675.9200 2289.5600

*CAP
1 *14:2 *8:3 11.567
2 *14:2 *15:2 0.460471
3 *14:2 *15:3 13.4294
4 *14:4 *15:2 15.3598
5 *14:2 *17:2 0.174042
6 *14:2 *17:3 1.60334
7 *14:4 *17:2 2.07328
8 *835:io_in[21] *835:io_oeb[8] 0.04564
9 *835:io_in[21] *79:2 0.052053
10 *835:io_in[21] *835:io_out[20] 0.159983
11 *432 *92:2 0.0604917
12 *14:2 *92:2 2.17208
13 *14:2 *92:3 45.9366
14 *14:4 *92:2 29.1236
15 *14:4 *92:3 1.52639
16 *432 0.744152
17 *835:io_in[21] 25.5229
18 *14:2 0.400525
19 *14:3 27.6487
20 *14:4 15.5673

*RES
1 *432 *14:4 0.001
2 *835:io_in[21] *14:3 223.85
3 *14:2 *14:4 238.264
4 *14:2 *14:3 8.97108
*END

*D_NET *15 264.826

*CONN
*P *433 I *C 612.9200 2997.6000
*I *835:io_in[22] I *C 1699.4400 2289.5600

*CAP
1 *15:3 *7:5 0.0569304
2 *15:3 *8:3 14.367
3 *15:2 *14:2 0.460471
4 *15:3 *14:2 13.4294
5 *15:2 *14:4 15.3598
6 *433 *16:2 0.535556
7 *15:2 *16:2 1.97382
8 *15:2 *16:3 0.492042
9 *15:3 *16:3 1.04026
10 *433 *17:2 13.3017
11 *15:2 *17:2 61.7565
12 *15:3 *17:2 1.82304
13 *15:3 *17:3 42.5296
14 *15:3 *45:5 1.41367
15 *835:io_in[22] *835:io_oeb[8] 0.0338016
16 *835:io_in[22] *79:2 0.0208146
17 *433 *92:2 3.29028
18 *15:2 *92:2 7.60124
19 *15:2 *92:3 0.361369
20 *15:3 *92:3 1.85084
21 *433 5.86927
22 *835:io_in[22] 25.5409
23 *15:2 14.8632
24 *15:3 9.67836
25 *15:4 27.1764

*RES
1 *433 *15:2 95.7488
2 *835:io_in[22] *15:4 223.13
3 *15:2 *15:3 258.095
4 *15:3 *15:4 8.83608
*END

*D_NET *16 215.308

*CONN
*P *434 I *C 280.7700 2997.6000
*I *835:io_in[23] I *C 1722.9600 2290.0000

*CAP
1 *835:io_in[23] *6:2 0.00106085
2 *16:3 *7:5 21.1087
3 *16:3 *9:3 15.6533
4 *16:2 *433 0.535556